47
Final Frame from Quantum Espresso Output
Zn -0.0000000130 1.5094013740 1.2182902100
Zn -0.0078988975 1.5082455562 6.2460992097
Zn -1.3071799410 3.7735034240 1.2182902100
Zn -1.3153569995 3.7706156763 6.2478015182
Zn -2.6143598690 6.0376054730 1.2182902100
Zn -2.6218732117 6.0354659652 6.2444889898
Zn -3.9215397970 8.3017075230 1.2182902100
Zn -3.9296329560 8.3004899911 6.2447283012
Zn 2.6143598430 1.5094013740 1.2182902100
Zn 2.6058994814 1.5080043417 6.2495873401
Zn 1.3071799150 3.7735034240 1.2182902100
Zn 1.2987820549 3.7689331576 6.2467959652
Zn -0.0000000130 6.0376054730 1.2182902100
Zn -0.0091762665 6.0354527292 6.2410389862
Zn -1.3071799410 8.3017075230 1.2182902100
Zn -1.3155579858 8.3007153407 6.2452802627
Zn 1.3071799410 0.7547006760 3.6548706290
Zn 1.2954183921 0.7419553144 8.8412344647
Zn 0.0000000130 3.0188027250 3.6548706290
Zn -0.0120213743 3.0049686779 8.8445842423
Zn -1.3071799150 5.2829047750 3.6548706290
Zn -1.3189277100 5.2693303335 8.8390191217
Zn -2.6143598430 7.5470068250 3.6548706290
Zn -2.6263193236 7.5335398534 8.8384815472
Zn 3.9215397970 0.7547006760 3.6548706290
Zn 3.9099373675 0.7416799321 8.8314148752
Zn 2.6143598690 3.0188027250 3.6548706290
Zn 2.6031632454 3.0044690022 8.8282075427
Zn 1.3071799410 5.2829047750 3.6548706290
Zn 1.2940145130 5.2693249750 8.7797658303
Zn 0.0000000130 7.5470068250 3.6548706290
Zn -0.0132294592 7.5338311496 8.8276288183
C 1.2532968655 4.4134510526 18.0509704009
C 1.3749558345 4.6277806466 16.6471123998
C 2.1944543567 3.7899886397 15.8604272279
C 0.6506129003 5.6571873973 16.0098200790
C 0.7524378799 5.8505420717 14.6392757734
C 2.2999056533 3.9869486536 14.4909999020
C 1.5833511678 5.0228196403 13.8547081762
N 1.1508818700 4.2345245964 19.2068209028
N 1.7347289146 5.2535907222 12.5009598729
H 1.0213654809 5.8115358493 12.0314019705
H 2.0983877619 4.4938344940 11.9252242773
H 2.7587545686 2.9865132370 16.3425341038
H 0.1742629312 6.6473752172 14.1590008019
H 2.9511920320 3.3362053102 13.8966664813
H -0.0060359818 6.2982810662 16.6049392579
