16
Frame from Quantum Espresso Output
Zn 0.0000000660 1.5094013740 1.2182902100
Zn 0.0000000660 1.5094357008 3.7083415529
Zn -1.3071798610 3.7735034240 1.2182902100
Zn -1.3071501331 3.7734862606 3.7083415529
Zn 2.6143601610 1.5094013740 1.2182902100
Zn 2.6143601610 1.5094013740 3.7083409123
Zn 1.3071802330 3.7735034240 1.2182902100
Zn 1.3071505051 3.7734862606 3.7083415529
Zn 1.3071801000 0.7547006760 1.2182902100
Zn 1.3072098279 0.7547178394 3.7083415529
Zn 0.0000001720 3.0188027260 1.2182902100
Zn 0.0000001720 3.0188027260 3.7083409123
Zn 3.9215401940 0.7547006760 1.2182902100
Zn 3.9215104661 0.7547178394 3.7083415529
Zn 2.6143602660 3.0188027260 1.2182902100
Zn 2.6143602660 3.0187683992 3.7083415529
16
Frame from Quantum Espresso Output
Zn 0.0000000660 1.5094013740 1.2182902100
Zn 0.0000000660 1.5090597631 3.7671583789
Zn -1.3071798610 3.7735034240 1.2182902100
Zn -1.3074757047 3.7736742295 3.7671583789
Zn 2.6143601610 1.5094013740 1.2182902100
Zn 2.6143601610 1.5094013740 3.7671544573
Zn 1.3071802330 3.7735034240 1.2182902100
Zn 1.3074760767 3.7736742295 3.7671583789
Zn 1.3071801000 0.7547006760 1.2182902100
Zn 1.3068842563 0.7545298705 3.7671583789
Zn 0.0000001720 3.0188027260 1.2182902100
Zn 0.0000001720 3.0188027260 3.7671544573
Zn 3.9215401940 0.7547006760 1.2182902100
Zn 3.9218360377 0.7545298705 3.7671583789
Zn 2.6143602660 3.0188027260 1.2182902100
Zn 2.6143602660 3.0191443369 3.7671583789
16
Frame from Quantum Espresso Output
Zn 0.0000000660 1.5094013740 1.2182902100
Zn 0.0000000660 1.5139097764 3.8552520117
Zn -1.3071798610 3.7735034240 1.2182902100
Zn -1.3032754704 3.7712492226 3.8552520117
Zn 2.6143601610 1.5094013740 1.2182902100
Zn 2.6143601610 1.5094013740 3.8552153046
Zn 1.3071802330 3.7735034240 1.2182902100
Zn 1.3032758424 3.7712492230 3.8552520117
Zn 1.3071801000 0.7547006760 1.2182902100
Zn 1.3110844906 0.7569548770 3.8552520117
Zn 0.0000001720 3.0188027260 1.2182902100
Zn 0.0000001720 3.0188027260 3.8552153046
Zn 3.9215401940 0.7547006760 1.2182902100
Zn 3.9176358034 0.7569548774 3.8552520117
Zn 2.6143602660 3.0188027260 1.2182902100
Zn 2.6143602660 3.0142943236 3.8552520117
16
Frame from Quantum Espresso Output
Zn 0.0000000660 1.5094013740 1.2182902100
Zn 0.0000000660 1.4955244490 3.9863092662
Zn -1.3071798610 3.7735034240 1.2182902100
Zn -1.3191976295 3.7804418871 3.9863092662
Zn 2.6143601610 1.5094013740 1.2182902100
Zn 2.6143601610 1.5094013740 3.9861394708
Zn 1.3071802330 3.7735034240 1.2182902100
Zn 1.3191980015 3.7804418859 3.9863092662
Zn 1.3071801000 0.7547006760 1.2182902100
Zn 1.2951623315 0.7477622141 3.9863092662
Zn 0.0000001720 3.0188027260 1.2182902100
Zn 0.0000001720 3.0188027260 3.9861394708
Zn 3.9215401940 0.7547006760 1.2182902100
Zn 3.9335579625 0.7477622129 3.9863092662
Zn 2.6143602660 3.0188027260 1.2182902100
Zn 2.6143602660 3.0326796510 3.9863092662
16
Frame from Quantum Espresso Output
Zn 0.0000000660 1.5094013740 1.2182902100
Zn 0.0000000660 1.5127266128 4.3444986320
Zn -1.3071798610 3.7735034240 1.2182902100
Zn -1.3043001200 3.7718408045 4.3444986320
Zn 2.6143601610 1.5094013740 1.2182902100
Zn 2.6143601610 1.5094013740 4.3427057815
Zn 1.3071802330 3.7735034240 1.2182902100
Zn 1.3043004920 3.7718408048 4.3444986320
Zn 1.3071801000 0.7547006760 1.2182902100
Zn 1.3100598410 0.7563632952 4.3444986320
Zn 0.0000001720 3.0188027260 1.2182902100
Zn 0.0000001720 3.0188027260 4.3427057815
Zn 3.9215401940 0.7547006760 1.2182902100
Zn 3.9186604530 0.7563632955 4.3444986320
Zn 2.6143602660 3.0188027260 1.2182902100
Zn 2.6143602660 3.0154774872 4.3444986320
16
Frame from Quantum Espresso Output
Zn 0.0000000660 1.5094013740 1.2182902100
Zn 0.0000000660 1.5096893202 4.4142060061
Zn -1.3071798610 3.7735034240 1.2182902100
Zn -1.3069304923 3.7733594509 4.4142060061
Zn 2.6143601610 1.5094013740 1.2182902100
Zn 2.6143601610 1.5094013740 4.4069892887
Zn 1.3071802330 3.7735034240 1.2182902100
Zn 1.3069308643 3.7733594509 4.4142060061
Zn 1.3071801000 0.7547006760 1.2182902100
Zn 1.3074294687 0.7548446491 4.4142060061
Zn 0.0000001720 3.0188027260 1.2182902100
Zn 0.0000001720 3.0188027260 4.4069892887
Zn 3.9215401940 0.7547006760 1.2182902100
Zn 3.9212908253 0.7548446491 4.4142060061
Zn 2.6143602660 3.0188027260 1.2182902100
Zn 2.6143602660 3.0185147798 4.4142060061
16
Frame from Quantum Espresso Output
Zn 0.0000000660 1.5094013740 1.2182902100
Zn 0.0000000660 1.5080396525 4.4909391400
Zn -1.3071798610 3.7735034240 1.2182902100
Zn -1.3083591463 3.7741842848 4.4909391400
Zn 2.6143601610 1.5094013740 1.2182902100
Zn 2.6143601610 1.5094013740 4.4680514993
Zn 1.3071802330 3.7735034240 1.2182902100
Zn 1.3083595183 3.7741842847 4.4909391400
Zn 1.3071801000 0.7547006760 1.2182902100
Zn 1.3060008147 0.7540198153 4.4909391400
Zn 0.0000001720 3.0188027260 1.2182902100
Zn 0.0000001720 3.0188027260 4.4680514993
Zn 3.9215401940 0.7547006760 1.2182902100
Zn 3.9227194793 0.7540198152 4.4909391400
Zn 2.6143602660 3.0188027260 1.2182902100
Zn 2.6143602660 3.0201644475 4.4909391400
16
Frame from Quantum Espresso Output
Zn 0.0000000660 1.5094013740 1.2182902100
Zn 0.0000000660 1.5057953260 4.6060435589
Zn -1.3071798610 3.7735034240 1.2182902100
Zn -1.3103027899 3.7753064482 4.6060435589
Zn 2.6143601610 1.5094013740 1.2182902100
Zn 2.6143601610 1.5094013740 4.5729938267
Zn 1.3071802330 3.7735034240 1.2182902100
Zn 1.3103031619 3.7753064478 4.6060435589
Zn 1.3071801000 0.7547006760 1.2182902100
Zn 1.3040571711 0.7528976522 4.6060435589
Zn 0.0000001720 3.0188027260 1.2182902100
Zn 0.0000001720 3.0188027260 4.5729938267
Zn 3.9215401940 0.7547006760 1.2182902100
Zn 3.9246631229 0.7528976518 4.6060435589
Zn 2.6143602660 3.0188027260 1.2182902100
Zn 2.6143602660 3.0224087740 4.6060435589
16
Frame from Quantum Espresso Output
Zn 0.0000000660 1.5094013740 1.2182902100
Zn 0.0000000660 1.5025288861 4.7787021091
Zn -1.3071798610 3.7735034240 1.2182902100
Zn -1.3131316096 3.7769396683 4.7787021091
Zn 2.6143601610 1.5094013740 1.2182902100
Zn 2.6143601610 1.5094013740 4.7301690563
Zn 1.3071802330 3.7735034240 1.2182902100
Zn 1.3131319816 3.7769396676 4.7787021091
Zn 1.3071801000 0.7547006760 1.2182902100
Zn 1.3012283514 0.7512644324 4.7787021091
Zn 0.0000001720 3.0188027260 1.2182902100
Zn 0.0000001720 3.0188027260 4.7301690563
Zn 3.9215401940 0.7547006760 1.2182902100
Zn 3.9274919426 0.7512644317 4.7787021091
Zn 2.6143602660 3.0188027260 1.2182902100
Zn 2.6143602660 3.0256752139 4.7787021091
16
Frame from Quantum Espresso Output
Zn 0.0000000660 1.5094013740 1.2182902100
Zn 0.0000000660 1.4976296806 5.0376899430
Zn -1.3071798610 3.7735034240 1.2182902100
Zn -1.3173744456 3.7793892712 5.0376899430
Zn 2.6143601610 1.5094013740 1.2182902100
Zn 2.6143601610 1.5094013740 4.9659321044
Zn 1.3071802330 3.7735034240 1.2182902100
Zn 1.3173748176 3.7793892701 5.0376899430
Zn 1.3071801000 0.7547006760 1.2182902100
Zn 1.2969855154 0.7488148299 5.0376899430
Zn 0.0000001720 3.0188027260 1.2182902100
Zn 0.0000001720 3.0188027260 4.9659321044
Zn 3.9215401940 0.7547006760 1.2182902100
Zn 3.9317347786 0.7488148288 5.0376899430
Zn 2.6143602660 3.0188027260 1.2182902100
Zn 2.6143602660 3.0305744194 5.0376899430
16
Frame from Quantum Espresso Output
Zn 0.0000000660 1.5094013740 1.2182902100
Zn 0.0000000660 1.4905861164 5.4261773481
Zn -1.3071798610 3.7735034240 1.2182902100
Zn -1.3234743506 3.7829110537 5.4261773481
Zn 2.6143601610 1.5094013740 1.2182902100
Zn 2.6143601610 1.5094013740 5.3196007568
Zn 1.3071802330 3.7735034240 1.2182902100
Zn 1.3234747226 3.7829110520 5.4261773481
Zn 1.3071801000 0.7547006760 1.2182902100
Zn 1.2908856104 0.7452930480 5.4261773481
Zn 0.0000001720 3.0188027260 1.2182902100
Zn 0.0000001720 3.0188027260 5.3196007568
Zn 3.9215401940 0.7547006760 1.2182902100
Zn 3.9378346836 0.7452930463 5.4261773481
Zn 2.6143602660 3.0188027260 1.2182902100
Zn 2.6143602660 3.0376179836 5.4261773481
16
Frame from Quantum Espresso Output
Zn 0.0000000660 1.5094013740 1.2182902100
Zn 0.0000000660 1.4826927279 5.8494455226
Zn -1.3071798610 3.7735034240 1.2182902100
Zn -1.3303102249 3.7868577482 5.8494455226
Zn 2.6143601610 1.5094013740 1.2182902100
Zn 2.6143601610 1.5094013740 5.7017253509
Zn 1.3071802330 3.7735034240 1.2182902100
Zn 1.3303105969 3.7868577458 5.8494455226
Zn 1.3071801000 0.7547006760 1.2182902100
Zn 1.2840497361 0.7413463542 5.8494455226
Zn 0.0000001720 3.0188027260 1.2182902100
Zn 0.0000001720 3.0188027260 5.7017253509
Zn 3.9215401940 0.7547006760 1.2182902100
Zn 3.9446705579 0.7413463518 5.8494455226
Zn 2.6143602660 3.0188027260 1.2182902100
Zn 2.6143602660 3.0455113721 5.8494455226
16
Frame from Quantum Espresso Output
Zn 0.0000000660 1.5094013740 1.2182902100
Zn 0.0000000660 1.4755701019 6.2727273688
Zn -1.3071798610 3.7735034240 1.2182902100
Zn -1.3364785994 3.7904190616 6.2727273688
Zn 2.6143601610 1.5094013740 1.2182902100
Zn 2.6143601610 1.5094013740 6.0850756700
Zn 1.3071802330 3.7735034240 1.2182902100
Zn 1.3364789714 3.7904190585 6.2727273688
Zn 1.3071801000 0.7547006760 1.2182902100
Zn 1.2778813616 0.7377850415 6.2727273688
Zn 0.0000001720 3.0188027260 1.2182902100
Zn 0.0000001720 3.0188027260 6.0850756700
Zn 3.9215401940 0.7547006760 1.2182902100
Zn 3.9508389324 0.7377850384 6.2727273688
Zn 2.6143602660 3.0188027260 1.2182902100
Zn 2.6143602660 3.0526339981 6.2727273688
16
Frame from Quantum Espresso Output
Zn 0.0000000660 1.5094013740 1.2182902100
Zn 0.0000000660 1.4649649945 6.6959362828
Zn -1.3071798610 3.7735034240 1.2182902100
Zn -1.3456628910 3.7957216158 6.6959362828
Zn 2.6143601610 1.5094013740 1.2182902100
Zn 2.6143601610 1.5094013740 6.4584581678
Zn 1.3071802330 3.7735034240 1.2182902100
Zn 1.3456632630 3.7957216117 6.6959362828
Zn 1.3071801000 0.7547006760 1.2182902100
Zn 1.2686970700 0.7324824883 6.6959362828
Zn 0.0000001720 3.0188027260 1.2182902100
Zn 0.0000001720 3.0188027260 6.4584581678
Zn 3.9215401940 0.7547006760 1.2182902100
Zn 3.9600232240 0.7324824842 6.6959362828
Zn 2.6143602660 3.0188027260 1.2182902100
Zn 2.6143602660 3.0632391055 6.6959362828
16
Frame from Quantum Espresso Output
Zn 0.0000000660 1.5094013740 1.2182902100
Zn 0.0000000660 1.4557095902 7.1191768652
Zn -1.3071798610 3.7735034240 1.2182902100
Zn -1.3536783055 3.8003493184 7.1191768652
Zn 2.6143601610 1.5094013740 1.2182902100
Zn 2.6143601610 1.5094013740 6.8361511885
Zn 1.3071802330 3.7735034240 1.2182902100
Zn 1.3536786775 3.8003493135 7.1191768652
Zn 1.3071801000 0.7547006760 1.2182902100
Zn 1.2606816555 0.7278547865 7.1191768652
Zn 0.0000001720 3.0188027260 1.2182902100
Zn 0.0000001720 3.0188027260 6.8361511885
Zn 3.9215401940 0.7547006760 1.2182902100
Zn 3.9680386385 0.7278547816 7.1191768652
Zn 2.6143602660 3.0188027260 1.2182902100
Zn 2.6143602660 3.0724945098 7.1191768652
16
Frame from Quantum Espresso Output
Zn 0.0000000660 1.5094013740 1.2182902100
Zn 0.0000000660 1.4480421511 7.5424491931
Zn -1.3071798610 3.7735034240 1.2182902100
Zn -1.3603185020 3.8041830383 7.5424491931
Zn 2.6143601610 1.5094013740 1.2182902100
Zn 2.6143601610 1.5094013740 7.2186521340
Zn 1.3071802330 3.7735034240 1.2182902100
Zn 1.3603188740 3.8041830327 7.5424491931
Zn 1.3071801000 0.7547006760 1.2182902100
Zn 1.2540414590 0.7240210673 7.5424491931
Zn 0.0000001720 3.0188027260 1.2182902100
Zn 0.0000001720 3.0188027260 7.2186521340
Zn 3.9215401940 0.7547006760 1.2182902100
Zn 3.9746788350 0.7240210617 7.5424491931
Zn 2.6143602660 3.0188027260 1.2182902100
Zn 2.6143602660 3.0801619489 7.5424491931
16
Frame from Quantum Espresso Output
Zn 0.0000000660 1.5094013740 1.2182902100
Zn 0.0000000660 1.4420090776 7.9657479708
Zn -1.3071798610 3.7735034240 1.2182902100
Zn -1.3655432964 3.8071995753 7.9657479708
Zn 2.6143601610 1.5094013740 1.2182902100
Zn 2.6143601610 1.5094013740 7.6059892305
Zn 1.3071802330 3.7735034240 1.2182902100
Zn 1.3655436684 3.8071995691 7.9657479707
Zn 1.3071801000 0.7547006760 1.2182902100
Zn 1.2488166646 0.7210045309 7.9657479708
Zn 0.0000001720 3.0188027260 1.2182902100
Zn 0.0000001720 3.0188027260 7.6059892305
Zn 3.9215401940 0.7547006760 1.2182902100
Zn 3.9799036294 0.7210045247 7.9657479708
Zn 2.6143602660 3.0188027260 1.2182902100
Zn 2.6143602660 3.0861950224 7.9657479708
16
Frame from Quantum Espresso Output
Zn 0.0000000660 1.5094013740 1.2182902100
Zn 0.0000000660 1.4385135637 8.3890753081
Zn -1.3071798610 3.7735034240 1.2182902100
Zn -1.3685704999 3.8089473324 8.3890753081
Zn 2.6143601610 1.5094013740 1.2182902100
Zn 2.6143601610 1.5094013740 7.9999584152
Zn 1.3071802330 3.7735034240 1.2182902100
Zn 1.3685708719 3.8089473259 8.3890753081
Zn 1.3071801000 0.7547006760 1.2182902100
Zn 1.2457894611 0.7192567741 8.3890753081
Zn 0.0000001720 3.0188027260 1.2182902100
Zn 0.0000001720 3.0188027260 7.9999584152
Zn 3.9215401940 0.7547006760 1.2182902100
Zn 3.9829308329 0.7192567676 8.3890753081
Zn 2.6143602660 3.0188027260 1.2182902100
Zn 2.6143602660 3.0896905363 8.3890753081
16
Frame from Quantum Espresso Output
Zn 0.0000000660 1.5094013740 1.2182902100
Zn 0.0000000660 1.8540939765 8.4697671517
Zn -1.3071798610 3.7735034240 1.2182902100
Zn -1.0086673379 3.6011571070 8.4697671517
Zn 2.6143601610 1.5094013740 1.2182902100
Zn 2.6143601610 1.5094013740 7.7578129781
Zn 1.3071802330 3.7735034240 1.2182902100
Zn 1.0086677099 3.6011571384 8.4697671517
Zn 1.3071801000 0.7547006760 1.2182902100
Zn 1.6056926231 0.9270469616 8.4697671517
Zn 0.0000001720 3.0188027260 1.2182902100
Zn 0.0000001720 3.0188027260 7.7578129781
Zn 3.9215401940 0.7547006760 1.2182902100
Zn 3.6230276709 0.9270469930 8.4697671517
Zn 2.6143602660 3.0188027260 1.2182902100
Zn 2.6143602660 2.6741101235 8.4697671517
16
Frame from Quantum Espresso Output
Zn 0.0000000660 1.5094013740 1.2182902100
Zn 0.0000000660 1.6218310522 8.4246694450
Zn -1.3071798610 3.7735034240 1.2182902100
Zn -1.2098129125 3.7172885798 8.4246694450
Zn 2.6143601610 1.5094013740 1.2182902100
Zn 2.6143601610 1.5094013740 7.8931451680
Zn 1.3071802330 3.7735034240 1.2182902100
Zn 1.2098132845 3.7172885900 8.4246694450
Zn 1.3071801000 0.7547006760 1.2182902100
Zn 1.4045470485 0.8109155100 8.4246694450
Zn 0.0000001720 3.0188027260 1.2182902100
Zn 0.0000001720 3.0188027260 7.8931451680
Zn 3.9215401940 0.7547006760 1.2182902100
Zn 3.8241732455 0.8109155202 8.4246694450
Zn 2.6143602660 3.0188027260 1.2182902100
Zn 2.6143602660 2.9063730478 8.4246694450
16
Frame from Quantum Espresso Output
Zn 0.0000000660 1.5094013740 1.2182902100
Zn 0.0000000660 1.7292653439 8.5657672510
Zn -1.3071798610 3.7735034240 1.2182902100
Zn -1.1167720950 3.6635714290 8.5657672510
Zn 2.6143601610 1.5094013740 1.2182902100
Zn 2.6143601610 1.5094013740 7.4698033993
Zn 1.3071802330 3.7735034240 1.2182902100
Zn 1.1167724670 3.6635714491 8.5657672510
Zn 1.3071801000 0.7547006760 1.2182902100
Zn 1.4975878660 0.8646326509 8.5657672510
Zn 0.0000001720 3.0188027260 1.2182902100
Zn 0.0000001720 3.0188027260 7.4698033993
Zn 3.9215401940 0.7547006760 1.2182902100
Zn 3.7311324280 0.8646326710 8.5657672510
Zn 2.6143602660 3.0188027260 1.2182902100
Zn 2.6143602660 2.7989387561 8.5657672510
16
Frame from Quantum Espresso Output
Zn 0.0000000660 1.5094013740 1.2182902100
Zn 0.0000000660 1.8499563175 8.7068616522
Zn -1.3071798610 3.7735034240 1.2182902100
Zn -1.0122506554 3.6032259367 8.7068616522
Zn 2.6143601610 1.5094013740 1.2182902100
Zn 2.6143601610 1.5094013740 7.0464616306
Zn 1.3071802330 3.7735034240 1.2182902100
Zn 1.0122510274 3.6032259678 8.7068616521
Zn 1.3071801000 0.7547006760 1.2182902100
Zn 1.6021093056 0.9249781322 8.7068616522
Zn 0.0000001720 3.0188027260 1.2182902100
Zn 0.0000001720 3.0188027260 7.0464616306
Zn 3.9215401940 0.7547006760 1.2182902100
Zn 3.6266109884 0.9249781633 8.7068616522
Zn 2.6143602660 3.0188027260 1.2182902100
Zn 2.6143602660 2.6782477825 8.7068616522
16
Frame from Quantum Espresso Output
Zn 0.0000000660 1.5094013740 1.2182902100
Zn 0.0000000660 1.9010078341 8.7678718472
Zn -1.3071798610 3.7735034240 1.2182902100
Zn -0.9680387492 3.5777001761 8.7678718472
Zn 2.6143601610 1.5094013740 1.2182902100
Zn 2.6143601610 1.5094013740 6.8627176214
Zn 1.3071802330 3.7735034240 1.2182902100
Zn 0.9680391212 3.5777002118 8.7678718472
Zn 1.3071801000 0.7547006760 1.2182902100
Zn 1.6463212118 0.9505038882 8.7678718472
Zn 0.0000001720 3.0188027260 1.2182902100
Zn 0.0000001720 3.0188027260 6.8627176214
Zn 3.9215401940 0.7547006760 1.2182902100
Zn 3.5823990822 0.9505039239 8.7678718472
Zn 2.6143602660 3.0188027260 1.2182902100
Zn 2.6143602660 2.6271962659 8.7678718472
16
Frame from Quantum Espresso Output
Zn 0.0000000660 1.5094013740 1.2182902100
Zn 0.0000000660 1.9119434341 8.7889424009
Zn -1.3071798610 3.7735034240 1.2182902100
Zn -0.9585682427 3.5722323756 8.7889424009
Zn 2.6143601610 1.5094013740 1.2182902100
Zn 2.6143601610 1.5094013740 6.7991752667
Zn 1.3071802330 3.7735034240 1.2182902100
Zn 0.9585686147 3.5722324123 8.7889424009
Zn 1.3071801000 0.7547006760 1.2182902100
Zn 1.6557917183 0.9559716877 8.7889424009
Zn 0.0000001720 3.0188027260 1.2182902100
Zn 0.0000001720 3.0188027260 6.7991752667
Zn 3.9215401940 0.7547006760 1.2182902100
Zn 3.5729285757 0.9559717244 8.7889424009
Zn 2.6143602660 3.0188027260 1.2182902100
Zn 2.6143602660 2.6162606659 8.7889424009
16
Frame from Quantum Espresso Output
Zn 0.0000000660 1.5094013740 1.2182902100
Zn 0.0000000660 1.9149915498 8.8110919769
Zn -1.3071798610 3.7735034240 1.2182902100
Zn -0.9559284973 3.5707083176 8.8110919769
Zn 2.6143601610 1.5094013740 1.2182902100
Zn 2.6143601610 1.5094013740 6.7292786764
Zn 1.3071802330 3.7735034240 1.2182902100
Zn 0.9559288693 3.5707083546 8.8110919769
Zn 1.3071801000 0.7547006760 1.2182902100
Zn 1.6584314637 0.9574957454 8.8110919770
Zn 0.0000001720 3.0188027260 1.2182902100
Zn 0.0000001720 3.0188027260 6.7292786764
Zn 3.9215401940 0.7547006760 1.2182902100
Zn 3.5702888303 0.9574957824 8.8110919769
Zn 2.6143602660 3.0188027260 1.2182902100
Zn 2.6143602660 2.6132125502 8.8110919769
16
Frame from Quantum Espresso Output
Zn 0.0000000660 1.5094013740 1.2182902100
Zn 0.0000000660 1.9081313818 8.8447865270
Zn -1.3071798610 3.7735034240 1.2182902100
Zn -0.9618695765 3.5741384019 8.8447865270
Zn 2.6143601610 1.5094013740 1.2182902100
Zn 2.6143601610 1.5094013740 6.6244337911
Zn 1.3071802330 3.7735034240 1.2182902100
Zn 0.9618699485 3.5741384383 8.8447865270
Zn 1.3071801000 0.7547006760 1.2182902100
Zn 1.6524903845 0.9540656617 8.8447865270
Zn 0.0000001720 3.0188027260 1.2182902100
Zn 0.0000001720 3.0188027260 6.6244337911
Zn 3.9215401940 0.7547006760 1.2182902100
Zn 3.5762299095 0.9540656981 8.8447865270
Zn 2.6143602660 3.0188027260 1.2182902100
Zn 2.6143602660 2.6200727182 8.8447865270
16
Frame from Quantum Espresso Output
Zn 0.0000000660 1.5094013740 1.2182902100
Zn 0.0000000660 1.8859821905 8.8945641509
Zn -1.3071798610 3.7735034240 1.2182902100
Zn -0.9810513371 3.5852129986 8.8945641509
Zn 2.6143601610 1.5094013740 1.2182902100
Zn 2.6143601610 1.5094013740 6.4671664632
Zn 1.3071802330 3.7735034240 1.2182902100
Zn 0.9810517091 3.5852130329 8.8945641509
Zn 1.3071801000 0.7547006760 1.2182902100
Zn 1.6333086239 0.9429910671 8.8945641509
Zn 0.0000001720 3.0188027260 1.2182902100
Zn 0.0000001720 3.0188027260 6.4671664632
Zn 3.9215401940 0.7547006760 1.2182902100
Zn 3.5954116701 0.9429911014 8.8945641509
Zn 2.6143602660 3.0188027260 1.2182902100
Zn 2.6143602660 2.6422219095 8.8945641509
16
Frame from Quantum Espresso Output
Zn 0.0000000660 1.5094013740 1.2182902100
Zn 0.0000000660 1.8686671431 8.9306734935
Zn -1.3071798610 3.7735034240 1.2182902100
Zn -0.9960466066 3.5938705231 8.9306734935
Zn 2.6143601610 1.5094013740 1.2182902100
Zn 2.6143601610 1.5094013740 6.3507006334
Zn 1.3071802330 3.7735034240 1.2182902100
Zn 0.9960469786 3.5938705558 8.9306734935
Zn 1.3071801000 0.7547006760 1.2182902100
Zn 1.6183133544 0.9343335442 8.9306734935
Zn 0.0000001720 3.0188027260 1.2182902100
Zn 0.0000001720 3.0188027260 6.3507006334
Zn 3.9215401940 0.7547006760 1.2182902100
Zn 3.6104069396 0.9343335769 8.9306734935
Zn 2.6143602660 3.0188027260 1.2182902100
Zn 2.6143602660 2.6595369569 8.9306734935
16
Frame from Quantum Espresso Output
Zn 0.0000000660 1.5094013740 1.2182902100
Zn 0.0000000660 1.8609439499 8.9549600841
Zn -1.3071798610 3.7735034240 1.2182902100
Zn -1.0027350875 3.5977321200 8.9549600841
Zn 2.6143601610 1.5094013740 1.2182902100
Zn 2.6143601610 1.5094013740 6.2739993599
Zn 1.3071802330 3.7735034240 1.2182902100
Zn 1.0027354595 3.5977321521 8.9549600840
Zn 1.3071801000 0.7547006760 1.2182902100
Zn 1.6116248735 0.9304719479 8.9549600841
Zn 0.0000001720 3.0188027260 1.2182902100
Zn 0.0000001720 3.0188027260 6.2739993599
Zn 3.9215401940 0.7547006760 1.2182902100
Zn 3.6170954205 0.9304719800 8.9549600841
Zn 2.6143602660 3.0188027260 1.2182902100
Zn 2.6143602660 2.6672601501 8.9549600841
16
Frame from Quantum Espresso Output
Zn 0.0000000660 1.5094013740 1.2182902100
Zn 0.0000000660 1.8595045538 8.9696776195
Zn -1.3071798610 3.7735034240 1.2182902100
Zn -1.0039816410 3.5984518182 8.9696776195
Zn 2.6143601610 1.5094013740 1.2182902100
Zn 2.6143601610 1.5094013740 6.2258058962
Zn 1.3071802330 3.7735034240 1.2182902100
Zn 1.0039820130 3.5984518501 8.9696776195
Zn 1.3071801000 0.7547006760 1.2182902100
Zn 1.6103783200 0.9297522499 8.9696776195
Zn 0.0000001720 3.0188027260 1.2182902100
Zn 0.0000001720 3.0188027260 6.2258058962
Zn 3.9215401940 0.7547006760 1.2182902100
Zn 3.6183419740 0.9297522818 8.9696776195
Zn 2.6143602660 3.0188027260 1.2182902100
Zn 2.6143602660 2.6686995462 8.9696776195
16
Frame from Quantum Espresso Output
Zn 0.0000000660 1.5094013740 1.2182902100
Zn 0.0000000660 1.8602961735 8.9860124028
Zn -1.3071798610 3.7735034240 1.2182902100
Zn -1.0032960783 3.5980560083 8.9860124028
Zn 2.6143601610 1.5094013740 1.2182902100
Zn 2.6143601610 1.5094013740 6.1727930861
Zn 1.3071802330 3.7735034240 1.2182902100
Zn 1.0032964503 3.5980560403 8.9860124028
Zn 1.3071801000 0.7547006760 1.2182902100
Zn 1.6110638827 0.9301480597 8.9860124028
Zn 0.0000001720 3.0188027260 1.2182902100
Zn 0.0000001720 3.0188027260 6.1727930861
Zn 3.9215401940 0.7547006760 1.2182902100
Zn 3.6176564113 0.9301480917 8.9860124028
Zn 2.6143602660 3.0188027260 1.2182902100
Zn 2.6143602660 2.6679079265 8.9860124028
16
Frame from Quantum Espresso Output
Zn 0.0000000660 1.5094013740 1.2182902100
Zn 0.0000000660 1.8640062291 9.0103582690
Zn -1.3071798610 3.7735034240 1.2182902100
Zn -1.0000830762 3.5962009803 9.0103582690
Zn 2.6143601610 1.5094013740 1.2182902100
Zn 2.6143601610 1.5094013740 6.0932738709
Zn 1.3071802330 3.7735034240 1.2182902100
Zn 1.0000834482 3.5962010126 9.0103582689
Zn 1.3071801000 0.7547006760 1.2182902100
Zn 1.6142768848 0.9320030874 9.0103582690
Zn 0.0000001720 3.0188027260 1.2182902100
Zn 0.0000001720 3.0188027260 6.0932738709
Zn 3.9215401940 0.7547006760 1.2182902100
Zn 3.6144434092 0.9320031197 9.0103582690
Zn 2.6143602660 3.0188027260 1.2182902100
Zn 2.6143602660 2.6641978709 9.0103582690
16
Frame from Quantum Espresso Output
Zn 0.0000000660 1.5094013740 1.2182902100
Zn 0.0000000660 1.8656863241 9.0127599520
Zn -1.3071798610 3.7735034240 1.2182902100
Zn -0.9986280714 3.5953609327 9.0127599520
Zn 2.6143601610 1.5094013740 1.2182902100
Zn 2.6143601610 1.5094013740 6.0852774979
Zn 1.3071802330 3.7735034240 1.2182902100
Zn 0.9986284434 3.5953609652 9.0127599520
Zn 1.3071801000 0.7547006760 1.2182902100
Zn 1.6157318896 0.9328431348 9.0127599520
Zn 0.0000001720 3.0188027260 1.2182902100
Zn 0.0000001720 3.0188027260 6.0852774979
Zn 3.9215401940 0.7547006760 1.2182902100
Zn 3.6129884044 0.9328431673 9.0127599520
Zn 2.6143602660 3.0188027260 1.2182902100
Zn 2.6143602660 2.6625177759 9.0127599520
16
Frame from Quantum Espresso Output
Zn 0.0000000660 1.5094013740 1.2182902100
Zn 0.0000000660 1.8664402551 9.0122115663
Zn -1.3071798610 3.7735034240 1.2182902100
Zn -0.9979751481 3.5949839672 9.0122115663
Zn 2.6143601610 1.5094013740 1.2182902100
Zn 2.6143601610 1.5094013740 6.0861453271
Zn 1.3071802330 3.7735034240 1.2182902100
Zn 0.9979755201 3.5949839997 9.0122115663
Zn 1.3071801000 0.7547006760 1.2182902100
Zn 1.6163848129 0.9332201003 9.0122115663
Zn 0.0000001720 3.0188027260 1.2182902100
Zn 0.0000001720 3.0188027260 6.0861453271
Zn 3.9215401940 0.7547006760 1.2182902100
Zn 3.6123354811 0.9332201328 9.0122115663
Zn 2.6143602660 3.0188027260 1.2182902100
Zn 2.6143602660 2.6617638449 9.0122115663
16
Frame from Quantum Espresso Output
Zn 0.0000000660 1.5094013740 1.2182902100
Zn 0.0000000660 1.8665345418 9.0112069686
Zn -1.3071798610 3.7735034240 1.2182902100
Zn -0.9978934933 3.5949368238 9.0112069686
Zn 2.6143601610 1.5094013740 1.2182902100
Zn 2.6143601610 1.5094013740 6.0881963345
Zn 1.3071802330 3.7735034240 1.2182902100
Zn 0.9978938653 3.5949368564 9.0112069686
Zn 1.3071801000 0.7547006760 1.2182902100
Zn 1.6164664677 0.9332672436 9.0112069686
Zn 0.0000001720 3.0188027260 1.2182902100
Zn 0.0000001720 3.0188027260 6.0881963345
Zn 3.9215401940 0.7547006760 1.2182902100
Zn 3.6122538263 0.9332672762 9.0112069686
Zn 2.6143602660 3.0188027260 1.2182902100
Zn 2.6143602660 2.6616695582 9.0112069686
16
Frame from Quantum Espresso Output
Zn 0.0000000660 1.5094013740 1.2182902100
Zn 0.0000000660 1.8665345418 9.0112069686
Zn -1.3071798610 3.7735034240 1.2182902100
Zn -0.9978934933 3.5949368238 9.0112069686
Zn 2.6143601610 1.5094013740 1.2182902100
Zn 2.6143601610 1.5094013740 6.0881963345
Zn 1.3071802330 3.7735034240 1.2182902100
Zn 0.9978938653 3.5949368564 9.0112069686
Zn 1.3071801000 0.7547006760 1.2182902100
Zn 1.6164664677 0.9332672436 9.0112069686
Zn 0.0000001720 3.0188027260 1.2182902100
Zn 0.0000001720 3.0188027260 6.0881963345
Zn 3.9215401940 0.7547006760 1.2182902100
Zn 3.6122538263 0.9332672762 9.0112069686
Zn 2.6143602660 3.0188027260 1.2182902100
Zn 2.6143602660 2.6616695582 9.0112069686
