16
Final Frame from Quantum Espresso Output
Zn 0.0000000660 1.5094013740 1.2182902100
Zn 0.0000000660 1.8665345418 9.0112069686
Zn -1.3071798610 3.7735034240 1.2182902100
Zn -0.9978934933 3.5949368238 9.0112069686
Zn 2.6143601610 1.5094013740 1.2182902100
Zn 2.6143601610 1.5094013740 6.0881963345
Zn 1.3071802330 3.7735034240 1.2182902100
Zn 0.9978938653 3.5949368564 9.0112069686
Zn 1.3071801000 0.7547006760 1.2182902100
Zn 1.6164664677 0.9332672436 9.0112069686
Zn 0.0000001720 3.0188027260 1.2182902100
Zn 0.0000001720 3.0188027260 6.0881963345
Zn 3.9215401940 0.7547006760 1.2182902100
Zn 3.6122538263 0.9332672762 9.0112069686
Zn 2.6143602660 3.0188027260 1.2182902100
Zn 2.6143602660 2.6616695582 9.0112069686
