8
Frame from Quantum Espresso Output
Zn 1.2182902100 1.3071799410 0.7547006760
Zn 1.2182902100 3.9215397970 0.7547006760
Zn 6.0914510490 1.3071799410 0.7547006760
Zn 6.0914510490 3.9215397970 0.7547006760
Zn 3.6548639060 0.0000011897 1.5020871850
Zn 3.6548617469 2.6143587629 1.5020851695
Zn 8.5280449106 0.0000014494 1.5020942342
Zn 8.5280507791 2.6143589364 1.5020868927
8
Frame from Quantum Espresso Output
Zn 1.2182902100 1.3071799410 0.7547006760
Zn 1.2182902100 3.9215397970 0.7547006760
Zn 6.0914510490 1.3071799410 0.7547006760
Zn 6.0914510490 3.9215397970 0.7547006760
Zn 3.6548495691 0.0000024708 1.4940415362
Zn 3.6548450703 2.6143576064 1.4940373560
Zn 8.5280665591 0.0000030089 1.4940561983
Zn 8.5280787730 2.6143579613 1.4940409999
8
Frame from Quantum Espresso Output
Zn 1.2182902100 1.3071799410 0.7547006760
Zn 1.2182902100 3.9215397970 0.7547006760
Zn 6.0914510490 1.3071799410 0.7547006760
Zn 6.0914510490 3.9215397970 0.7547006760
Zn 3.6555205694 0.0000047782 1.4819936791
Zn 3.6555128557 2.6143553153 1.4819859605
Zn 8.5274008675 0.0000057914 1.4820174994
Zn 8.5274225179 2.6143562631 1.4819871047
8
Frame from Quantum Espresso Output
Zn 1.2182902100 1.3071799410 0.7547006760
Zn 1.2182902100 3.9215397970 0.7547006760
Zn 6.0914510490 1.3071799410 0.7547006760
Zn 6.0914510490 3.9215397970 0.7547006760
Zn 3.6563496977 0.0000076438 1.4639121538
Zn 3.6563376738 2.6143524708 1.4638987527
Zn 8.5265809066 0.0000093998 1.4639514717
Zn 8.5266154245 2.6143543532 1.4638974811
8
Frame from Quantum Espresso Output
Zn 1.2182902100 1.3071799410 0.7547006760
Zn 1.2182902100 3.9215397970 0.7547006760
Zn 6.0914510490 1.3071799410 0.7547006760
Zn 6.0914510490 3.9215397970 0.7547006760
Zn 3.6579678205 0.0000110905 1.4368100147
Zn 3.6579494607 2.6143490042 1.4367881702
Zn 8.5249754728 0.0000139866 1.4368704352
Zn 8.5250287659 2.6143522514 1.4367824344
8
Frame from Quantum Espresso Output
Zn 1.2182902100 1.3071799410 0.7547006760
Zn 1.2182902100 3.9215397970 0.7547006760
Zn 6.0914510490 1.3071799410 0.7547006760
Zn 6.0914510490 3.9215397970 0.7547006760
Zn 3.6600907505 0.0000153029 1.3961388686
Zn 3.6600631700 2.6143447683 1.3961049317
Zn 8.5228717060 0.0000199647 1.3962308281
Zn 8.5229522998 2.6143500226 1.3960932394
8
Frame from Quantum Espresso Output
Zn 1.2182902100 1.3071799410 0.7547006760
Zn 1.2182902100 3.9215397970 0.7547006760
Zn 6.0914510490 1.3071799410 0.7547006760
Zn 6.0914510490 3.9215397970 0.7547006760
Zn 3.6631088423 0.0000212867 1.3351212555
Zn 3.6630679970 2.6143400968 1.3350699453
Zn 8.5198799090 0.0000284956 1.3352608581
Zn 8.5200000338 2.6143483305 1.3350513741
8
Frame from Quantum Espresso Output
Zn 1.2182902100 1.3071799410 0.7547006760
Zn 1.2182902100 3.9215397970 0.7547006760
Zn 6.0914510490 1.3071799410 0.7547006760
Zn 6.0914510490 3.9215397970 0.7547006760
Zn 3.6677071818 0.0000279513 1.2435981774
Zn 3.6676475039 2.6143349623 1.2435221301
Zn 8.5153189561 0.0000390820 1.2438047606
Zn 8.5154955863 2.6143474593 1.2434922859
8
Frame from Quantum Espresso Output
Zn 1.2182902100 1.3071799410 0.7547006760
Zn 1.2182902100 3.9215397970 0.7547006760
Zn 6.0914510490 1.3071799410 0.7547006760
Zn 6.0914510490 3.9215397970 0.7547006760
Zn 3.6741721060 0.0000350301 1.1062876337
Zn 3.6740867928 2.6143302677 1.1061773888
Zn 8.5089017195 0.0000519558 1.1065920055
Zn 8.5091571995 2.6143488804 1.1061337137
8
Frame from Quantum Espresso Output
Zn 1.2182902100 1.3071799410 0.7547006760
Zn 1.2182902100 3.9215397970 0.7547006760
Zn 6.0914510490 1.3071799410 0.7547006760
Zn 6.0914510490 3.9215397970 0.7547006760
Zn 3.6828107746 0.0000378235 0.9002631783
Zn 3.6826932774 2.6143300139 0.9001100157
Zn 8.5003263810 0.0000632521 0.9007042150
Zn 8.5006844677 2.6143572563 0.9000507063
8
Frame from Quantum Espresso Output
Zn 1.2182902100 1.3071799410 0.7547006760
Zn 1.2182902100 3.9215397970 0.7547006760
Zn 6.0914510490 1.3071799410 0.7547006760
Zn 6.0914510490 3.9215397970 0.7547006760
Zn 3.6840088719 0.0000325573 0.8509029925
Zn 3.6838905377 2.6143366823 0.8507491841
Zn 8.4991268539 0.0000596767 0.8513631167
Zn 8.4994918649 2.6143652077 0.8506891098
8
Frame from Quantum Espresso Output
Zn 1.2182902100 1.3071799410 0.7547006760
Zn 1.2182902100 3.9215397970 0.7547006760
Zn 6.0914510490 1.3071799410 0.7547006760
Zn 6.0914510490 3.9215397970 0.7547006760
Zn 3.6846135953 0.0000235042 0.7965927576
Zn 3.6845010240 2.6143459874 0.7964464801
Zn 8.4985060715 0.0000519577 0.7970636993
Zn 8.4988630827 2.6143755263 0.7963876497
8
Frame from Quantum Espresso Output
Zn 1.2182902100 1.3071799410 0.7547006760
Zn 1.2182902100 3.9215397970 0.7547006760
Zn 6.0914510490 1.3071799410 0.7547006760
Zn 6.0914510490 3.9215397970 0.7547006760
Zn 3.6840531276 0.0000152454 0.7629058118
Zn 3.6839512738 2.6143536773 0.7627751695
Zn 8.4990416900 0.0000439305 0.7633685210
Zn 8.4993752964 2.6143832341 0.7627203153
8
Frame from Quantum Espresso Output
Zn 1.2182902100 1.3071799410 0.7547006760
Zn 1.2182902100 3.9215397970 0.7547006760
Zn 6.0914510490 1.3071799410 0.7547006760
Zn 6.0914510490 3.9215397970 0.7547006760
Zn 3.6824377866 0.0000083457 0.7423101768
Zn 3.6823502437 2.6143602920 0.7422002576
Zn 8.5006224947 0.0000365897 0.7427579466
Zn 8.5009216314 2.6143890427 0.7421568740
8
Frame from Quantum Espresso Output
Zn 1.2182902100 1.3071799410 0.7547006760
Zn 1.2182902100 3.9215397970 0.7547006760
Zn 6.0914510490 1.3071799410 0.7547006760
Zn 6.0914510490 3.9215397970 0.7547006760
Zn 3.6801770850 0.0000038561 0.7390458760
Zn 3.6801058529 2.6143644096 0.7389589932
Zn 8.5028448567 0.0000309304 0.7394606191
Zn 8.5031027179 2.6143917253 0.7389218078
8
Frame from Quantum Espresso Output
Zn 1.2182902100 1.3071799410 0.7547006760
Zn 1.2182902100 3.9215397970 0.7547006760
Zn 6.0914510490 1.3071799410 0.7547006760
Zn 6.0914510490 3.9215397970 0.7547006760
Zn 3.6758350966 -0.0000028225 0.7385179019
Zn 3.6757931844 2.6143705997 0.7384733354
Zn 8.5071333721 0.0000217506 0.7388504111
Zn 8.5073146917 2.6143949891 0.7384294169
8
Frame from Quantum Espresso Output
Zn 1.2182902100 1.3071799410 0.7547006760
Zn 1.2182902100 3.9215397970 0.7547006760
Zn 6.0914510490 1.3071799410 0.7547006760
Zn 6.0914510490 3.9215397970 0.7547006760
Zn 3.6692823145 -0.0000102976 0.7381904317
Zn 3.6692829320 2.6143774063 0.7382078360
Zn 8.5135813420 0.0000104061 0.7384394042
Zn 8.5136505918 2.6143974668 0.7381945341
8
Frame from Quantum Espresso Output
Zn 1.2182902100 1.3071799410 0.7547006760
Zn 1.2182902100 3.9215397970 0.7547006760
Zn 6.0914510490 1.3071799410 0.7547006760
Zn 6.0914510490 3.9215397970 0.7547006760
Zn 3.6603657894 -0.0000167035 0.7423557159
Zn 3.6604199959 2.6143828143 0.7424524216
Zn 8.5223806610 -0.0000014999 0.7424823537
Zn 8.5223042889 2.6143970912 0.7424722705
8
Frame from Quantum Espresso Output
Zn 1.2182902100 1.3071799410 0.7547006760
Zn 1.2182902100 3.9215397970 0.7547006760
Zn 6.0914510490 1.3071799410 0.7547006760
Zn 6.0914510490 3.9215397970 0.7547006760
Zn 3.6544521444 -0.0000159058 0.7480007453
Zn 3.6545366668 2.6143813172 0.7481433126
Zn 8.5282340437 -0.0000046915 0.7480463758
Zn 8.5280703528 2.6143915720 0.7481867388
8
Frame from Quantum Espresso Output
Zn 1.2182902100 1.3071799410 0.7547006760
Zn 1.2182902100 3.9215397970 0.7547006760
Zn 6.0914510490 1.3071799410 0.7547006760
Zn 6.0914510490 3.9215397970 0.7547006760
Zn 3.6541045545 -0.0000118935 0.7506212851
Zn 3.6541854014 2.6143770776 0.7507593486
Zn 8.5285907781 -0.0000012801 0.7506634237
Zn 8.5284314599 2.6143868514 0.7508058040
8
Frame from Quantum Espresso Output
Zn 1.2182902100 1.3071799410 0.7547006760
Zn 1.2182902100 3.9215397970 0.7547006760
Zn 6.0914510490 1.3071799410 0.7547006760
Zn 6.0914510490 3.9215397970 0.7547006760
Zn 3.6541045545 -0.0000118935 0.7506212851
Zn 3.6541854014 2.6143770776 0.7507593486
Zn 8.5285907781 -0.0000012801 0.7506634237
Zn 8.5284314599 2.6143868514 0.7508058040
