62
Final Frame from Quantum Espresso Output
Zn 1.2182900000 1.3071800000 0.7547010000
Zn 1.2182900000 6.5359000000 0.7547010000
Zn 1.2111879029 -0.0000140503 3.6047708010
Zn 1.2113833766 5.2280330740 3.6042136181
Zn 1.2057253079 -1.3084275140 6.2729612828
Zn 1.1781865150 3.9231587421 6.3026164877
Zn 1.2182900000 3.9215400000 0.7547010000
Zn 1.2182900000 9.1502600000 0.7547010000
Zn 1.2165309105 2.6137392911 3.6072663527
Zn 1.2018895645 7.8430413323 3.6199001665
Zn 1.1771855181 1.3041295595 6.3003917030
Zn 1.2062390601 6.5352104332 6.2735537811
Zn 6.0914510000 1.3071800000 0.7547010000
Zn 6.0914510000 6.5359000000 0.7547010000
Zn 6.1117433388 -0.0010025292 3.6121404163
Zn 6.1112717038 5.2290057014 3.6112514625
Zn 6.0979861427 -1.3057711163 6.2638726164
Zn 6.0698948421 3.9156977986 6.2455918364
Zn 6.0914510000 3.9215400000 0.7547010000
Zn 6.0914510000 9.1502600000 0.7547010000
Zn 6.1220347674 2.6137583059 3.5946602897
Zn 6.1039928942 7.8430235209 3.6202714237
Zn 6.0699229234 1.3122023619 6.2465087857
Zn 6.0977285110 6.5329799316 6.2639468247
Zn 3.6548710000 -0.0000000000 1.5094010000
Zn 3.6548710000 5.2287200000 1.5094010000
Zn 3.6507419385 -1.3147770207 3.8120383277
Zn 3.6686819526 3.9317587720 3.7821563198
Zn 3.6539473569 -2.6152365814 6.2111728176
Zn 3.5573682172 2.6123955717 6.0992240337
Zn 3.6548710000 2.6143600000 1.5094010000
Zn 3.6548710000 7.8430800000 1.5094010000
Zn 3.6692583513 1.2965238987 3.7813310753
Zn 3.6508348414 6.5424077755 3.8123650373
Zn 3.6444860450 -0.0040924278 6.1954905979
Zn 3.6444474557 5.2317557926 6.1943130545
Zn 8.5280310000 -0.0000000000 1.5094010000
Zn 8.5280310000 5.2287200000 1.5094010000
Zn 8.5315686822 -1.3082315592 3.8739460493
Zn 8.5456077114 3.9204552232 3.8715143180
Zn 8.5265580191 -2.6150378721 6.3435339778
Zn 8.4976700299 2.6142565331 6.3315436911
Zn 8.5280310000 2.6143600000 1.5094010000
Zn 8.5280310000 7.8430800000 1.5094010000
Zn 8.5456139759 1.3080138427 3.8714214350
Zn 8.5317485169 6.5360621854 3.8736843255
Zn 8.5190755417 0.0032044377 6.3341266287
Zn 8.5196461372 5.2246120162 6.3335477372
H 3.4732252792 4.8752277348 13.1160390184
H 3.4874136993 4.8168340752 10.6310030040
C 3.4667589526 3.9116236521 12.6025931136
C 3.4856990213 3.8892092372 11.2089799047
H 3.4806821849 2.7398350410 14.4245324891
C 3.4680527998 2.7182130825 13.3350762198
H 4.0027991196 3.4610603347 8.6978883611
C 3.5290526797 2.6620378041 10.5252641345
N 3.6011724944 2.6346802518 9.1335737396
C 3.4639732031 1.4964856370 12.6502317456
C 3.4829187856 1.4647882580 11.2576849367
H 3.4687765356 0.5542518338 13.2022626254
H 3.9944582148 1.7872245333 8.7297942325
H 3.4840060649 0.5137392852 10.7168346687
