18
Frame from Quantum Espresso Output
N -2.8393395034 -0.0306089973 0.1702351751
C 1.4044425853 -0.0142260553 0.0096997737
C -1.3505789015 -0.0243237924 0.0670662127
C 0.6848822239 -1.2064872787 0.1342308398
C 0.6720595006 1.1850820049 -0.0876960368
C -0.7076134073 -1.2132180644 0.1631098528
C -0.7137102923 1.1868953985 -0.0611740884
C 2.9038721292 0.0039603532 -0.0213299689
H 1.2295041771 -2.1626291295 0.2123622449
H 1.2170291230 2.1393151532 -0.1862512421
H -1.2318404065 -2.1695774067 0.2614181202
H -1.2498475046 2.1373519484 -0.1393225142
H 3.2824176708 0.6143464439 0.8157953533
H 3.3180640644 -1.0069057949 0.0629149605
H 3.2467135428 0.4504153872 -0.9702074844
H -3.1999844030 0.6929599176 0.7568576771
H -3.2695549380 -0.9298518546 0.2754386862
H -3.2202556825 0.3722807008 -0.8033999980
18
Frame from Quantum Espresso Output
N -2.8408694715 -0.0058158510 0.1226895116
C 1.4035361908 -0.0141593934 0.0097377728
C -1.3594798277 -0.0223105294 0.0735576585
C 0.6904223582 -1.2114460468 0.1336604890
C 0.6774676149 1.1881908026 -0.0888006309
C -0.6999893749 -1.2299062235 0.1646310389
C -0.7106241507 1.1967948724 -0.0620040092
C 2.9032769841 0.0045853703 -0.0213267858
H 1.2270986460 -2.1587171813 0.2119802487
H 1.2142156415 2.1357718751 -0.1859607824
H -1.2328335201 -2.1685891381 0.2618776148
H -1.2509846102 2.1370020300 -0.1389261250
H 3.2836125746 0.6134043150 0.8127419487
H 3.3184117852 -1.0055373173 0.0628074045
H 3.2479825494 0.4499787927 -0.9669666238
H -3.2051621272 0.6975506676 0.7790560093
H -3.2741776294 -0.9413893824 0.2825025394
H -3.2156436549 0.3593712714 -0.7915097157
18
Frame from Quantum Espresso Output
N -2.8638544784 0.0040800366 0.0935053433
C 1.4027593063 -0.0125933892 0.0092838939
C -1.3627105415 -0.0211013123 0.0777389760
C 0.6962223579 -1.2161140241 0.1332393730
C 0.6823089420 1.1894074695 -0.0896674934
C -0.6978395050 -1.2283449569 0.1656289020
C -0.7056420212 1.1957976152 -0.0609527515
C 2.9005144247 0.0046354679 -0.0212385085
H 1.2279548044 -2.1577842125 0.2116446099
H 1.2133882857 2.1342063381 -0.1860551286
H -1.2371218452 -2.1752289696 0.2630720577
H -1.2544197694 2.1407826558 -0.1388727349
H 3.2863415728 0.6131897400 0.8097022999
H 3.3196421909 -1.0048178061 0.0627754301
H 3.2507712716 0.4502530821 -0.9638659291
H -3.2041140631 0.6889933421 0.7940921237
H -3.2663080445 -0.9263083762 0.2855417918
H -3.2116329099 0.3457262335 -0.7858246918
18
Frame from Quantum Espresso Output
N -2.8597285450 0.0094098667 0.0995575524
C 1.4037581174 -0.0139528158 0.0090872091
C -1.3680530734 -0.0185563749 0.0778816154
C 0.6957478609 -1.2141457302 0.1330039571
C 0.6832335551 1.1890032343 -0.0897653919
C -0.6987456878 -1.2338939313 0.1669991625
C -0.7067170173 1.1993095998 -0.0604307497
C 2.9002337487 0.0044793528 -0.0212232866
H 1.2299650636 -2.1595345388 0.2115824650
H 1.2139778744 2.1346625440 -0.1863151319
H -1.2374036984 -2.1752327173 0.2632837434
H -1.2542868914 2.1398542364 -0.1386376884
H 3.2879965497 0.6132007199 0.8081216035
H 3.3201644445 -1.0042601169 0.0627575876
H 3.2525081341 0.4505429513 -0.9622991817
H -3.2039513315 0.6825685800 0.7987596349
H -3.2654425837 -0.9230446492 0.2867401127
H -3.2169965417 0.3443687231 -0.7993556500
18
Frame from Quantum Espresso Output
N -2.8573348691 0.0146025134 0.0976493269
C 1.4047029576 -0.0136208628 0.0085470802
C -1.3677445034 -0.0186145801 0.0784470587
C 0.6935195856 -1.2160660230 0.1332375681
C 0.6823986299 1.1883602460 -0.0897568365
C -0.7025583975 -1.2310134623 0.1682234880
C -0.7074436425 1.1993026064 -0.0590340570
C 2.9011153408 0.0037044042 -0.0212038573
H 1.2326150974 -2.1604394819 0.2112433782
H 1.2155594149 2.1355958615 -0.1868429633
H -1.2390001619 -2.1781179773 0.2640286515
H -1.2548445295 2.1407127529 -0.1383734780
H 3.2908315924 0.6134244445 0.8058252438
H 3.3211503502 -1.0034912959 0.0627452209
H 3.2555545658 0.4511938894 -0.9601005729
H -3.2056367861 0.6758706665 0.8088848102
H -3.2632560784 -0.9166370316 0.2886871406
H -3.2233685880 0.3400122640 -0.8124596385
18
Frame from Quantum Espresso Output
N -2.8602717770 0.0188358091 0.0932193452
C 1.4035192636 -0.0160449283 0.0083015924
C -1.3685246833 -0.0146936561 0.0781895476
C 0.6920588670 -1.2154956716 0.1334736541
C 0.6824048261 1.1895834945 -0.0897345801
C -0.7051664058 -1.2329641763 0.1698906395
C -0.7073271609 1.1990480669 -0.0575632868
C 2.9020210656 0.0036117537 -0.0213354436
H 1.2346851371 -2.1610469979 0.2107959169
H 1.2166636635 2.1353875400 -0.1873735258
H -1.2402175597 -2.1789713484 0.2647198592
H -1.2552744481 2.1413283347 -0.1379636892
H 3.2942272209 0.6138731998 0.8038148776
H 3.3227252855 -1.0036927609 0.0628148705
H 3.2592948560 0.4520490310 -0.9582954486
H -3.2066744825 0.6682341488 0.8165835461
H -3.2596338378 -0.9086922619 0.2900671964
H -3.2282498520 0.3344293569 -0.8198575078
18
Frame from Quantum Espresso Output
N -2.8615334690 0.0205911341 0.0920836036
C 1.4029355431 -0.0148941327 0.0080811196
C -1.3692000162 -0.0159731927 0.0775670378
C 0.6908783691 -1.2170714360 0.1340520067
C 0.6830483578 1.1887761123 -0.0893656420
C -0.7058118289 -1.2313881232 0.1702205198
C -0.7067709313 1.2012177751 -0.0572975430
C 2.9021655964 0.0032337629 -0.0214373003
H 1.2344843019 -2.1600213860 0.2104625423
H 1.2172223194 2.1351491446 -0.1876597103
H -1.2411113163 -2.1790228623 0.2651036961
H -1.2549830019 2.1410212032 -0.1376300368
H 3.2958057002 0.6142221018 0.8034655779
H 3.3237530498 -1.0041869300 0.0628685664
H 3.2611688297 0.4525254891 -0.9581463533
H -3.2072658762 0.6655631387 0.8167877293
H -3.2583269413 -0.9075768275 0.2902296520
H -3.2301987081 0.3326139624 -0.8196379022
18
Frame from Quantum Espresso Output
N -2.8609636965 0.0192724085 0.0918607852
C 1.4030161067 -0.0150367020 0.0081523203
C -1.3689493551 -0.0152604615 0.0765486489
C 0.6903967631 -1.2169045784 0.1344833306
C 0.6830166592 1.1890243912 -0.0890393651
C -0.7063739513 -1.2303312513 0.1701859022
C -0.7064694731 1.2004573891 -0.0571589163
C 2.9024025821 0.0030012572 -0.0215543258
H 1.2337797723 -2.1592281973 0.2102621277
H 1.2176931290 2.1347032331 -0.1878293596
H -1.2417561626 -2.1783806029 0.2653713765
H -1.2548923923 2.1415735181 -0.1373991002
H 3.2966181033 0.6142998023 0.8034419546
H 3.3244096005 -1.0045438057 0.0628896694
H 3.2622884399 0.4526877975 -0.9582975726
H -3.2083243644 0.6658769486 0.8155693935
H -3.2580026428 -0.9089641476 0.2899695896
H -3.2316291401 0.3325319349 -0.8177088955
18
Frame from Quantum Espresso Output
N -2.8609034212 0.0183827515 0.0915012378
C 1.4031259621 -0.0152976551 0.0082530993
C -1.3689993280 -0.0145699709 0.0754947582
C 0.6896987457 -1.2161749092 0.1349264871
C 0.6832550696 1.1890389122 -0.0886631263
C -0.7070355096 -1.2296596266 0.1702627778
C -0.7063550738 1.2006671780 -0.0570533012
C 2.9030039031 0.0027884339 -0.0217096095
H 1.2331583996 -2.1586509218 0.2100493236
H 1.2183937467 2.1342893915 -0.1880636402
H -1.2426934411 -2.1775097168 0.2657591068
H -1.2546095207 2.1419878592 -0.1370389011
H 3.2977684477 0.6142445670 0.8030542928
H 3.3252576556 -1.0048109848 0.0628953904
H 3.2638401283 0.4528008897 -0.9581069441
H -3.2095922845 0.6654326121 0.8148325949
H -3.2571731862 -0.9101027161 0.2898188590
H -3.2338803154 0.3319228403 -0.8164648418
18
Frame from Quantum Espresso Output
N -2.8612677731 0.0176313976 0.0911369869
C 1.4035311306 -0.0153764878 0.0083911268
C -1.3694239623 -0.0134232445 0.0741017635
C 0.6889157350 -1.2155410488 0.1355491348
C 0.6835983638 1.1891480429 -0.0881804205
C -0.7079179521 -1.2288676864 0.1703828786
C -0.7060010455 1.2011315841 -0.0569536148
C 2.9039110643 0.0024150921 -0.0219251630
H 1.2321565845 -2.1577748063 0.2097701034
H 1.2194951320 2.1336924459 -0.1883915636
H -1.2441864568 -2.1761847617 0.2663746096
H -1.2542054515 2.1427761005 -0.1364845770
H 3.2995481335 0.6140649644 0.8023538368
H 3.3265429393 -1.0051061555 0.0628808671
H 3.2662032497 0.4528825491 -0.9576794937
H -3.2114066701 0.6642469244 0.8141236856
H -3.2557159856 -0.9116825820 0.2897086291
H -3.2375170575 0.3307466058 -0.8154112264
18
Frame from Quantum Espresso Output
N -2.8621709778 0.0165456094 0.0905712854
C 1.4041410681 -0.0154753712 0.0086354604
C -1.3701503160 -0.0119662402 0.0723142261
C 0.6878975559 -1.2142534907 0.1363087188
C 0.6844353187 1.1892570169 -0.0875899941
C -0.7089674239 -1.2275056053 0.1704466718
C -0.7057749176 1.2022311239 -0.0569753829
C 2.9052931508 0.0019059856 -0.0222184833
H 1.2307041571 -2.1569146324 0.2094922865
H 1.2211757492 2.1329473331 -0.1888186268
H -1.2465084684 -2.1741619157 0.2673181762
H -1.2534383124 2.1440177653 -0.1356445021
H 3.3021569040 0.6136536861 0.8013199747
H 3.3284188120 -1.0055002830 0.0628285306
H 3.2696160713 0.4528327699 -0.9570085909
H -3.2141641978 0.6624200001 0.8135242915
H -3.2533424088 -0.9141166828 0.2896190508
H -3.2430617864 0.3288618648 -0.8143755292
18
Frame from Quantum Espresso Output
N -2.8640963676 0.0152740350 0.0899086052
C 1.4054253162 -0.0151637624 0.0089617948
C -1.3714556727 -0.0095251235 0.0700008447
C 0.6868380203 -1.2128404299 0.1372343310
C 0.6852122024 1.1894032202 -0.0869298987
C -0.7104064217 -1.2256193481 0.1704072871
C -0.7050621152 1.2039517230 -0.0572461084
C 2.9073532506 0.0010880923 -0.0225814714
H 1.2283382362 -2.1558934230 0.2092952301
H 1.2238214537 2.1321880336 -0.1893429234
H -1.2498548092 -2.1707497626 0.2687137458
H -1.2521615041 2.1462595158 -0.1344188138
H 3.3059547599 0.6128449517 0.7999272005
H 3.3311067344 -1.0060211660 0.0626972410
H 3.2744480224 0.4524791862 -0.9560675987
H -3.2182554252 0.6593357907 0.8130331926
H -3.2495739997 -0.9179863605 0.2896003306
H -3.2513717024 0.3257537614 -0.8134454255
18
Frame from Quantum Espresso Output
N -2.8660290902 0.0141685791 0.0894944552
C 1.4063622505 -0.0150018826 0.0091988568
C -1.3725934000 -0.0077203337 0.0686278793
C 0.6863085114 -1.2115640632 0.1375949995
C 0.6866410752 1.1900292875 -0.0868175624
C -0.7110087003 -1.2234427112 0.1700806062
C -0.7052372804 1.2057288115 -0.0578032043
C 2.9090090591 0.0005604011 -0.0227700208
H 1.2263287833 -2.1557891096 0.2095121490
H 1.2257663916 2.1317092888 -0.1895264777
H -1.2524605391 -2.1677445942 0.2698116990
H -1.2506936570 2.1483834454 -0.1335002160
H 3.3087988017 0.6119156345 0.7991446810
H 3.3330292005 -1.0064710689 0.0625305462
H 3.2778267108 0.4517664295 -0.9554932047
H -3.2216502329 0.6566800396 0.8131857539
H -3.2462620369 -0.9213606125 0.2896803031
H -3.2578758693 0.3229313927 -0.8132036799
18
Frame from Quantum Espresso Output
N -2.8675264685 0.0133853996 0.0893677034
C 1.4071395611 -0.0144080716 0.0091793829
C -1.3734183287 -0.0062545691 0.0682090719
C 0.6863006139 -1.2110161945 0.1374156084
C 0.6866570663 1.1899936434 -0.0870969686
C -0.7110916912 -1.2220686460 0.1696529440
C -0.7046729837 1.2070917623 -0.0585042646
C 2.9099171625 0.0001686182 -0.0227347895
H 1.2248942917 -2.1563307330 0.2100734941
H 1.2270846419 2.1321888890 -0.1894199872
H -1.2536494513 -2.1652926714 0.2703838286
H -1.2495083763 2.1502983466 -0.1330810677
H 3.3102647163 0.6110741225 0.7991480099
H 3.3338640420 -1.0067712122 0.0623673742
H 3.2792360014 0.4508703331 -0.9554369429
H -3.2238099039 0.6547425805 0.8137757646
H -3.2439940601 -0.9236629114 0.2898416255
H -3.2614268554 0.3207702479 -0.8133932236
18
Frame from Quantum Espresso Output
N -2.8689120566 0.0128776858 0.0896849795
C 1.4077740461 -0.0139008233 0.0088846632
C -1.3738864215 -0.0046902004 0.0684312141
C 0.6869982401 -1.2110235977 0.1366303911
C 0.6871589983 1.1907171975 -0.0880706710
C -0.7108393799 -1.2201326792 0.1689005342
C -0.7047790828 1.2085737593 -0.0595737185
C 2.9104195459 -0.0000645892 -0.0224762274
H 1.2232883111 -2.1575000339 0.2112375687
H 1.2277572059 2.1329891242 -0.1888636419
H -1.2539880009 -2.1625525689 0.2706757149
H -1.2478116187 2.1527359241 -0.1330253675
H 3.3109772168 0.6099280566 0.7999673407
H 3.3338844163 -1.0071952715 0.0621596612
H 3.2792332141 0.4493770183 -0.9558857058
H -3.2257237433 0.6524330891 0.8148320315
H -3.2417990001 -0.9260242468 0.2901763667
H -3.2634919126 0.3182310899 -0.8139375703
18
Frame from Quantum Espresso Output
N -2.8691421469 0.0119087822 0.0902186903
C 1.4078548277 -0.0135801697 0.0082367141
C -1.3739856696 -0.0033563291 0.0690345688
C 0.6872707387 -1.2110298219 0.1354388769
C 0.6872959793 1.1912879366 -0.0893911129
C -0.7096839313 -1.2181423012 0.1680589965
C -0.7046287162 1.2101170953 -0.0607035543
C 2.9103130797 -0.0001769021 -0.0220598091
H 1.2220542639 -2.1590333032 0.2127513460
H 1.2276204908 2.1342202890 -0.1880044449
H -1.2533212880 -2.1604136010 0.2705348220
H -1.2460838947 2.1551871832 -0.1334993430
H 3.3106009167 0.6087729807 0.8014704684
H 3.3328355948 -1.0077322770 0.0620042405
H 3.2776090793 0.4476870032 -0.9567850949
H -3.2270871507 0.6505588975 0.8161449311
H -3.2401706547 -0.9274716115 0.2905604638
H -3.2630915407 0.3159750828 -0.8142631958
18
Frame from Quantum Espresso Output
N -2.8684964383 0.0114229830 0.0907123188
C 1.4075744229 -0.0134592737 0.0075988815
C -1.3733988446 -0.0021892666 0.0690531492
C 0.6877084773 -1.2110484879 0.1347338871
C 0.6875057981 1.1915279056 -0.0901955462
C -0.7098116513 -1.2169391403 0.1676472547
C -0.7046178368 1.2110824716 -0.0612817504
C 2.9099366142 -0.0003981241 -0.0218031111
H 1.2210930134 -2.1594034334 0.2137435834
H 1.2272780966 2.1349750652 -0.1874109387
H -1.2525357091 -2.1590485410 0.2702870311
H -1.2448909427 2.1569555533 -0.1340639737
H 3.3101254590 0.6080111306 0.8024832226
H 3.3317383406 -1.0082909380 0.0619837606
H 3.2762794864 0.4466385308 -0.9574028207
H -3.2279916943 0.6489979598 0.8166628661
H -3.2390941661 -0.9284009502 0.2908932180
H -3.2621424470 0.3143454893 -0.8138934687
18
Frame from Quantum Espresso Output
N -2.8674640952 0.0106039994 0.0911645127
C 1.4075345058 -0.0136177835 0.0069235964
C -1.3728962400 -0.0007115095 0.0684458176
C 0.6869729422 -1.2106658504 0.1343582472
C 0.6876618592 1.1921728320 -0.0907685131
C -0.7096534794 -1.2154799465 0.1673598855
C -0.7041929268 1.2123553265 -0.0617074062
C 2.9095375982 -0.0008063884 -0.0216920964
H 1.2199586663 -2.1590697062 0.2145946403
H 1.2270750089 2.1353168727 -0.1869343788
H -1.2522795747 -2.1577784079 0.2701338717
H -1.2435896267 2.1590094312 -0.1346962176
H 3.3099253674 0.6071484423 0.8030634330
H 3.3306213733 -1.0091375731 0.0620506775
H 3.2755237063 0.4457151895 -0.9577312524
H -3.2293995999 0.6469413925 0.8169273958
H -3.2373193464 -0.9295500934 0.2912695347
H -3.2617561604 0.3123327068 -0.8130141843
18
Frame from Quantum Espresso Output
N -2.8666426193 0.0096851438 0.0912771590
C 1.4071240615 -0.0134916715 0.0065890048
C -1.3726580665 0.0004105656 0.0675952772
C 0.6863779615 -1.2098838924 0.1344904968
C 0.6880698869 1.1922226136 -0.0907530469
C -0.7101635825 -1.2146738619 0.1673507093
C -0.7038458110 1.2134220270 -0.0618234227
C 2.9094329216 -0.0014181940 -0.0218067829
H 1.2191267119 -2.1581050341 0.2148954536
H 1.2273570818 2.1353858755 -0.1868599292
H -1.2526678445 -2.1570021115 0.2701339210
H -1.2427434553 2.1603919433 -0.1351324859
H 3.3100542629 0.6065360307 0.8028147821
H 3.3299164160 -1.0098832931 0.0621779469
H 3.2757834944 0.4453579189 -0.9575491842
H -3.2306737422 0.6454174460 0.8170318369
H -3.2353799248 -0.9304617732 0.2915503129
H -3.2622077741 0.3108692011 -0.8122344851
18
Frame from Quantum Espresso Output
N -2.8663722478 0.0094832244 0.0913590958
C 1.4071025572 -0.0133722527 0.0065520256
C -1.3725300029 0.0010813376 0.0670123547
C 0.6857040229 -1.2090989283 0.1348071989
C 0.6881838380 1.1925452042 -0.0905543470
C -0.7106114933 -1.2142440889 0.1674154165
C -0.7035765004 1.2140836947 -0.0618546983
C 2.9092059416 -0.0019508868 -0.0220245518
H 1.2187132451 -2.1571145370 0.2149422476
H 1.2278911525 2.1353574989 -0.1869755142
H -1.2533166894 -2.1566115402 0.2701653365
H -1.2422059953 2.1613011755 -0.1354981324
H 3.3101505161 0.6060581606 0.8022162086
H 3.3293231347 -1.0106100212 0.0623162600
H 3.2763647122 0.4452496547 -0.9571689865
H -3.2314457598 0.6442355784 0.8170458000
H -3.2335320346 -0.9314812210 0.2918388129
H -3.2627884188 0.3098668811 -0.8118469635
18
Frame from Quantum Espresso Output
N -2.8662422572 0.0090060653 0.0915034265
C 1.4069300737 -0.0128622200 0.0066361365
C -1.3726346261 0.0017687136 0.0667658433
C 0.6851762744 -1.2084456853 0.1351639379
C 0.6883818488 1.1931330756 -0.0903782481
C -0.7110183891 -1.2138945387 0.1674674176
C -0.7034107625 1.2148838939 -0.0620007523
C 2.9088301018 -0.0026746785 -0.0223027840
H 1.2184306764 -2.1559547456 0.2150160977
H 1.2286297333 2.1355068066 -0.1871469196
H -1.2540503362 -2.1562093196 0.2701045225
H -1.2415677545 2.1622094615 -0.1360887101
H 3.3099416062 0.6054208689 0.8015046048
H 3.3282102467 -1.0115656373 0.0624701081
H 3.2768520903 0.4450547920 -0.9567477013
H -3.2320672130 0.6431464782 0.8174094094
H -3.2309989151 -0.9326148558 0.2922063787
H -3.2631324199 0.3088704591 -0.8118352041
18
Frame from Quantum Espresso Output
N -2.8661890216 0.0089262107 0.0917416572
C 1.4064692324 -0.0123020318 0.0068057951
C -1.3726334976 0.0021596798 0.0671007846
C 0.6849402892 -1.2078046118 0.1353486518
C 0.6884243098 1.1937377448 -0.0903490265
C -0.7111529558 -1.2135595838 0.1674935211
C -0.7033832197 1.2153743408 -0.0622233955
C 2.9082925954 -0.0032649248 -0.0225210646
H 1.2185918723 -2.1552447338 0.2151624215
H 1.2293092338 2.1360143684 -0.1873164460
H -1.2545006593 -2.1559717803 0.2698781182
H -1.2411248982 2.1628872036 -0.1368624534
H 3.3092999553 0.6047864941 0.8010925783
H 3.3266304407 -1.0125505039 0.0625728064
H 3.2768174820 0.4447130079 -0.9565503112
H -3.2321191019 0.6424517373 0.8178729763
H -3.2287001551 -0.9337800803 0.2925898565
H -3.2627119238 0.3082063971 -0.8120889061
18
Frame from Quantum Espresso Output
N -2.8660972009 0.0087920040 0.0918732553
C 1.4063052248 -0.0119513021 0.0069145241
C -1.3725902811 0.0022420805 0.0676314043
C 0.6850070483 -1.2078502182 0.1353839859
C 0.6883711544 1.1942428803 -0.0904483815
C -0.7111422276 -1.2135094227 0.1675824698
C -0.7035018549 1.2155560410 -0.0623450779
C 2.9078152748 -0.0034289845 -0.0225642191
H 1.2189673958 -2.1550448946 0.2152327732
H 1.2295313493 2.1363907380 -0.1874367556
H -1.2544832351 -2.1558498944 0.2696406240
H -1.2411079703 2.1629089363 -0.1373804814
H 3.3087682840 0.6044914629 0.8011855557
H 3.3254974720 -1.0130769167 0.0625622908
H 3.2764912893 0.4443987772 -0.9566689494
H -3.2317971369 0.6424745595 0.8181795628
H -3.2277027939 -0.9341314215 0.2927132143
H -3.2620718140 0.3081245088 -0.8123082320
18
Frame from Quantum Espresso Output
N -2.8660972009 0.0087920040 0.0918732553
C 1.4063052248 -0.0119513021 0.0069145241
C -1.3725902811 0.0022420805 0.0676314043
C 0.6850070483 -1.2078502182 0.1353839859
C 0.6883711544 1.1942428803 -0.0904483815
C -0.7111422276 -1.2135094227 0.1675824698
C -0.7035018549 1.2155560410 -0.0623450779
C 2.9078152748 -0.0034289845 -0.0225642191
H 1.2189673958 -2.1550448946 0.2152327732
H 1.2295313493 2.1363907380 -0.1874367556
H -1.2544832351 -2.1558498944 0.2696406240
H -1.2411079703 2.1629089363 -0.1373804814
H 3.3087682840 0.6044914629 0.8011855557
H 3.3254974720 -1.0130769167 0.0625622908
H 3.2764912893 0.4443987772 -0.9566689494
H -3.2317971369 0.6424745595 0.8181795628
H -3.2277027939 -0.9341314215 0.2927132143
H -3.2620718140 0.3081245088 -0.8123082320
