66
Final Frame from Quantum Espresso Output
Zn 0.0000000000 1.5094010000 1.2182900000
Zn 5.2287200000 1.5094010000 1.2182900000
Zn -0.0034488160 1.5033947822 6.1592000552
Zn 5.2252335621 1.5036249664 6.1810443376
Zn -1.3071800000 3.7735030000 1.2182900000
Zn 3.9215400000 3.7735030000 1.2182900000
Zn -1.3096638223 3.7663822954 6.1561963691
Zn 3.9199628468 3.7684728986 6.1680351592
Zn -2.6143600000 6.0376050000 1.2182900000
Zn 2.6143600000 6.0376050000 1.2182900000
Zn -2.6185279429 6.0284375901 6.1759629125
Zn 2.6131255507 6.0301235756 6.1635645691
Zn -3.9215400000 8.3017080000 1.2182900000
Zn 1.3071800000 8.3017080000 1.2182900000
Zn -3.9259863724 8.2971391779 6.1791596821
Zn 1.3050035465 8.2918661188 6.1944800328
Zn 2.6143600000 1.5094010000 1.2182900000
Zn 7.8430800000 1.5094010000 1.2182900000
Zn 2.6125597582 1.5046148098 6.1736013115
Zn 7.8394563453 1.5034459094 6.1849909488
Zn 1.3071800000 3.7735030000 1.2182900000
Zn 6.5359000000 3.7735030000 1.2182900000
Zn 1.3044988252 3.7655434754 6.1231564499
Zn 6.5325578811 3.7695755522 6.1840604352
Zn 0.0000000000 6.0376050000 1.2182900000
Zn 5.2287200000 6.0376050000 1.2182900000
Zn -0.0050721832 6.0381638559 5.9427717826
Zn 5.2254318997 6.0309104599 6.1791428669
Zn -1.3071800000 8.3017080000 1.2182900000
Zn 3.9215400000 8.3017080000 1.2182900000
Zn -1.3109912519 8.2967684434 6.1840237035
Zn 3.9178571447 8.2948991398 6.1687984399
Zn 1.3024654220 0.7482384975 3.6996972438
Zn 6.5354228497 0.7546275479 3.7014860238
Zn -0.0063272525 3.0087602763 3.6716223202
Zn 5.2281066542 3.0163909236 3.7119729045
Zn -1.3223572843 5.2742263450 3.6749239299
Zn 3.9258445704 5.2799675236 3.6897015924
Zn -2.6222107897 7.5458017920 3.6969226195
Zn 2.6154734122 7.5472956105 3.6926819265
Zn 3.9200889874 0.7550346769 3.6995750381
Zn 9.1492338463 0.7490353379 3.7122190182
Zn 2.6176905814 3.0111463218 3.6860951700
Zn 7.8361904368 3.0130391373 3.7067468194
Zn 1.3147310972 5.2776709849 3.6628542199
Zn 6.5292593917 5.2767247396 3.7002059633
Zn -0.0015911071 7.5588563313 3.6774865850
Zn 5.2264799725 7.5451319114 3.7063597452
C 3.7064200917 3.6077099979 9.9769059838
C 2.4963265084 2.9270109126 9.7944689515
C 4.9869084526 2.8627320304 10.2298166944
C 3.6967185661 5.0121500370 9.9116954966
C 2.5191286667 5.7172241063 9.6774494645
C 1.3040398906 3.6136868618 9.5580272273
C 1.3371467502 5.0001602298 9.5145713159
N 0.1125233982 5.7429586065 9.1715571509
H 0.2113869404 6.1892966529 8.2100707163
H 5.6994339710 3.0249249845 9.4048881312
H 4.8157904242 1.7830263196 10.3255202201
H 2.4770347552 1.8381213217 9.8328296249
H 4.6276800082 5.5653068062 10.0408487722
H 2.5265665296 6.8061428282 9.6072662263
H 0.3730983520 3.0672735344 9.4009341037
H -0.7054225409 5.1211418561 9.0868147286
H -0.1056075108 6.4872748301 9.8470756912
H 5.4637690808 3.2089987265 11.1576024086
