17
Frame from Quantum Espresso Output
N -2.8039252779 0.1531395356 0.0597029264
C 1.4209602277 0.0059065030 0.0079709541
C -1.4248550052 0.1048713672 0.0429299446
C 0.6582977258 -1.1621836972 0.0348373298
C 0.7366903952 1.2321876935 -0.0010415379
C -0.7201452210 -1.1265839131 0.0520854110
C -0.6365223177 1.2894587346 0.0155592731
C 2.9232307095 -0.0263463378 -0.0109542058
H 1.1683539441 -2.1448346689 0.0427663366
H 1.3170598291 2.1744112613 -0.0222671462
H -1.2967470362 -2.0585561858 0.0730270682
H -1.1510586493 2.2574888949 0.0081062592
H 3.3159362942 0.5009282447 0.8738278386
H 3.2989170121 -1.0592885091 -0.0007270369
H 3.2924917634 0.4745074891 -0.9208927571
H -3.2964627665 1.0387300679 0.0528579307
H -3.3549474806 -0.6974965902 0.0789017970
17
Frame from Quantum Espresso Output
N -2.8033546368 0.1530903590 0.0597189796
C 1.4235685636 0.0060713684 0.0078942209
C -1.4234757776 0.1045401787 0.0428729089
C 0.6645769733 -1.1643078646 0.0347068750
C 0.7443327910 1.2314989479 -0.0011161466
C -0.7348976171 -1.1229254260 0.0522504287
C -0.6515220343 1.2869739183 0.0156971455
C 2.9235164031 -0.0259711310 -0.0109457120
H 1.1666514956 -2.1401534014 0.0427310110
H 1.3146677979 2.1703798601 -0.0221568313
H -1.2968208112 -2.0590846027 0.0730569578
H -1.1510622288 2.2580245431 0.0081095648
H 3.3190063139 0.4996764772 0.8700049519
H 3.2991018131 -1.0559664918 -0.0007569563
H 3.2956648480 0.4733590745 -0.9170607560
H -3.2923672480 1.0311528146 0.0529322623
H -3.3503124992 -0.6900187345 0.0787514812
17
Frame from Quantum Espresso Output
N -2.7998853818 0.1529133635 0.0597013512
C 1.4253356718 0.0068553276 0.0078288623
C -1.4189920075 0.1053470151 0.0427661094
C 0.6591150195 -1.1670506582 0.0347583858
C 0.7397551121 1.2333784600 -0.0010938103
C -0.7348852467 -1.1237397162 0.0522687705
C -0.6516657145 1.2863743129 0.0156441914
C 2.9220465433 -0.0252396668 -0.0109283585
H 1.1649939942 -2.1364380996 0.0427026243
H 1.3122591444 2.1664399393 -0.0220444546
H -1.2973847299 -2.0590157600 0.0730882758
H -1.1515133861 2.2580652263 0.0081193440
H 3.3227296455 0.4997731326 0.8688514951
H 3.3006000520 -1.0561202007 -0.0007524704
H 3.2994289418 0.4734811579 -0.9159542905
H -3.2932414257 1.0332831888 0.0529253836
H -3.3514220858 -0.6919671328 0.0788089764
17
Frame from Quantum Espresso Output
N -2.7978796004 0.1530856911 0.0597120981
C 1.4209425146 0.0067390641 0.0078357524
C -1.4173333536 0.1051474356 0.0426862303
C 0.6560222908 -1.1642948377 0.0346650834
C 0.7365241421 1.2306888255 -0.0010338752
C -0.7354424295 -1.1254416885 0.0523024558
C -0.6520454507 1.2880024910 0.0155256301
C 2.9224840762 -0.0249569612 -0.0109077030
H 1.1631787325 -2.1334072389 0.0426867959
H 1.3093150883 2.1628273874 -0.0219125310
H -1.2990631813 -2.0591656347 0.0731562317
H -1.1525924703 2.2577737620 0.0081419770
H 3.3285151244 0.4997643787 0.8667654674
H 3.3024240612 -1.0552581811 -0.0007521247
H 3.3052974665 0.4735276970 -0.9139441508
H -3.2923853822 1.0334069998 0.0529353770
H -3.3506874820 -0.6920993005 0.0788276712
17
Frame from Quantum Espresso Output
N -2.7969584964 0.1529184865 0.0597706179
C 1.4188743023 0.0067011793 0.0077732867
C -1.4191550340 0.1047974908 0.0426135600
C 0.6534772477 -1.1625303994 0.0345251113
C 0.7329119277 1.2283304706 -0.0010025287
C -0.7377665686 -1.1257396419 0.0523167207
C -0.6537697780 1.2880939910 0.0153847731
C 2.9220576124 -0.0246118653 -0.0108537874
H 1.1604016039 -2.1290350747 0.0426603677
H 1.3051738685 2.1581016778 -0.0217145479
H -1.3025951211 -2.0603465259 0.0733014781
H -1.1552368075 2.2585887372 0.0081655374
H 3.3376027077 0.4995447217 0.8633212134
H 3.3049830096 -1.0535653507 -0.0007428635
H 3.3145398914 0.4734028663 -0.9106002082
H -3.2895673296 1.0318814212 0.0529624313
H -3.3476988891 -0.6901922949 0.0788092238
17
Frame from Quantum Espresso Output
N -2.7971967346 0.1534748042 0.0598149783
C 1.4192884854 0.0068003755 0.0077079959
C -1.4206391394 0.1046315195 0.0425731914
C 0.6525991231 -1.1614447962 0.0344408780
C 0.7320395043 1.2273947773 -0.0010320972
C -0.7394708604 -1.1260718574 0.0522965134
C -0.6563957485 1.2878806299 0.0153309832
C 2.9228835884 -0.0241489488 -0.0108411125
H 1.1594138044 -2.1286319050 0.0426576857
H 1.3034929240 2.1573642342 -0.0216253753
H -1.3047701470 -2.0605205587 0.0733960387
H -1.1569372389 2.2586563037 0.0081761064
H 3.3425952949 0.4992626683 0.8615615154
H 3.3061904565 -1.0529082424 -0.0007164057
H 3.3196448975 0.4731702675 -0.9088650673
H -3.2884638690 1.0325156390 0.0529674913
H -3.3470001942 -0.6910850210 0.0788470657
17
Frame from Quantum Espresso Output
N -2.8002164492 0.1526944270 0.0599498124
C 1.4202586112 0.0076360173 0.0075901962
C -1.4226837844 0.1041956706 0.0425111602
C 0.6525053046 -1.1614999403 0.0343307176
C 0.7305547727 1.2270621866 -0.0011124214
C -0.7415586170 -1.1259943104 0.0522175419
C -0.6585842737 1.2872297130 0.0152418231
C 2.9254151664 -0.0237678360 -0.0108324386
H 1.1579911691 -2.1291663890 0.0426564492
H 1.3014798787 2.1580821177 -0.0215161818
H -1.3080075294 -2.0603772688 0.0735444410
H -1.1598285413 2.2584925070 0.0081869885
H 3.3494929260 0.4988498785 0.8597101878
H 3.3076830445 -1.0523922008 -0.0006530372
H 3.3267265256 0.4728122665 -0.9070182934
H -3.2876742459 1.0350101805 0.0529676613
H -3.3462798113 -0.6925271300 0.0789157787
17
Frame from Quantum Espresso Output
N -2.8021253471 0.1537874783 0.0600227791
C 1.4213828739 0.0078522202 0.0075087939
C -1.4248291794 0.1038242745 0.0424836156
C 0.6529289536 -1.1620264268 0.0342684361
C 0.7306998212 1.2284816895 -0.0012137760
C -0.7414434288 -1.1258697278 0.0521208778
C -0.6594392088 1.2868636356 0.0151884881
C 2.9274454546 -0.0235067626 -0.0108323443
H 1.1573519264 -2.1308060085 0.0426573562
H 1.3003523437 2.1598594681 -0.0214660891
H -1.3097050538 -2.0596979492 0.0736320007
H -1.1616096204 2.2576798671 0.0081888662
H 3.3529689620 0.4985936895 0.8595719313
H 3.3083660887 -1.0528752683 -0.0005857363
H 3.3303308955 0.4725633305 -0.9068428540
H -3.2878477222 1.0363267623 0.0529837741
H -3.3475536123 -0.6947103827 0.0790042660
17
Frame from Quantum Espresso Output
N -2.8027821936 0.1529658511 0.0600784740
C 1.4221285149 0.0081284607 0.0074648319
C -1.4249494150 0.1040872063 0.0424551279
C 0.6532248619 -1.1620127958 0.0342367293
C 0.7309503460 1.2289213317 -0.0012561181
C -0.7410004579 -1.1258055278 0.0520659716
C -0.6592673541 1.2865808751 0.0151661759
C 2.9282342193 -0.0234848383 -0.0108301348
H 1.1572471050 -2.1320810457 0.0426535987
H 1.3000744038 2.1616407626 -0.0214668688
H -1.3097642144 -2.0588940475 0.0736515107
H -1.1622184829 2.2568748599 0.0081836753
H 3.3535771516 0.4984031197 0.8602250587
H 3.3084909439 -1.0535649308 -0.0005397619
H 3.3310045652 0.4723556929 -0.9074417930
H -3.2889291310 1.0368939980 0.0530049710
H -3.3487467158 -0.6946690826 0.0790389371
17
Frame from Quantum Espresso Output
N -2.8033782827 0.1528280085 0.0601430028
C 1.4227244879 0.0087884005 0.0074011596
C -1.4244145987 0.1038763168 0.0424109486
C 0.6536196760 -1.1621877599 0.0341830608
C 0.7310238647 1.2291705102 -0.0012975637
C -0.7404679824 -1.1251222379 0.0519908536
C -0.6585937976 1.2863722175 0.0151179116
C 2.9293398916 -0.0236828124 -0.0108196075
H 1.1567599601 -2.1328455850 0.0426338560
H 1.2992872866 2.1635629322 -0.0214600597
H -1.3095916485 -2.0579332618 0.0736732224
H -1.1630021014 2.2558042531 0.0081718442
H 3.3542758596 0.4979430448 0.8609624011
H 3.3086345368 -1.0542269326 -0.0004748538
H 3.3318122404 0.4718758405 -0.9080838640
H -3.2901919356 1.0361352664 0.0530559638
H -3.3505633102 -0.6940183113 0.0790821098
17
Frame from Quantum Espresso Output
N -2.8031831934 0.1523578603 0.0602246242
C 1.4232175989 0.0088924156 0.0073277687
C -1.4244825086 0.1040255158 0.0423519337
C 0.6541306669 -1.1617295783 0.0340863007
C 0.7312904644 1.2299435921 -0.0013567836
C -0.7399651986 -1.1248056552 0.0519136008
C -0.6583530874 1.2860479288 0.0150477171
C 2.9305122659 -0.0238325412 -0.0107985456
H 1.1558699628 -2.1329295433 0.0425972326
H 1.2976302871 2.1647891045 -0.0214250804
H -1.3094673890 -2.0569240714 0.0737052361
H -1.1640447793 2.2546985927 0.0081533025
H 3.3557149931 0.4971741100 0.8613153682
H 3.3089544693 -1.0547125636 -0.0003930120
H 3.3334130213 0.4710968213 -0.9083098688
H -3.2915554099 1.0350494806 0.0531222674
H -3.3524080169 -0.6928015793 0.0791283239
17
Frame from Quantum Espresso Output
N -2.8031022327 0.1524393627 0.0602874936
C 1.4237989517 0.0093310167 0.0072615427
C -1.4245614738 0.1038583155 0.0423106526
C 0.6541630662 -1.1610724719 0.0340007933
C 0.7313341061 1.2297578431 -0.0013888029
C -0.7398021392 -1.1245357040 0.0518640286
C -0.6587264502 1.2860513907 0.0149863330
C 2.9308618773 -0.0239642155 -0.0107711543
H 1.1552342648 -2.1324583007 0.0425574133
H 1.2963347945 2.1652640796 -0.0213932912
H -1.3094609057 -2.0566142523 0.0737340738
H -1.1647867034 2.2541907468 0.0081327201
H 3.3571213966 0.4964835077 0.8611525664
H 3.3093042431 -1.0548766649 -0.0003305088
H 3.3349586686 0.4704085130 -0.9080427517
H -3.2920990303 1.0341733779 0.0531685213
H -3.3532982870 -0.6920966550 0.0791607557
17
Frame from Quantum Espresso Output
N -2.8031460198 0.1525724561 0.0603340904
C 1.4239905229 0.0095319029 0.0072238318
C -1.4246652073 0.1038825006 0.0422885111
C 0.6543686929 -1.1605266226 0.0339391596
C 0.7311499361 1.2297334179 -0.0014086300
C -0.7398949301 -1.1244387748 0.0518398475
C -0.6589419775 1.2858383854 0.0149486703
C 2.9310101114 -0.0241494645 -0.0107471794
H 1.1550372785 -2.1318950984 0.0425184313
H 1.2956848784 2.1653585641 -0.0213789276
H -1.3092225704 -2.0567003053 0.0737452502
H -1.1651104921 2.2542652905 0.0081084173
H 3.3577516908 0.4959699319 0.8609246383
H 3.3093998091 -1.0549229520 -0.0002866250
H 3.3356878462 0.4698982998 -0.9077304833
H -3.2922490700 1.0339223501 0.0531900875
H -3.3535763524 -0.6919999920 0.0791812955
17
Frame from Quantum Espresso Output
N -2.8031460198 0.1525724561 0.0603340904
C 1.4239905229 0.0095319029 0.0072238318
C -1.4246652073 0.1038825006 0.0422885111
C 0.6543686929 -1.1605266226 0.0339391596
C 0.7311499361 1.2297334179 -0.0014086300
C -0.7398949301 -1.1244387748 0.0518398475
C -0.6589419775 1.2858383854 0.0149486703
C 2.9310101114 -0.0241494645 -0.0107471794
H 1.1550372785 -2.1318950984 0.0425184313
H 1.2956848784 2.1653585641 -0.0213789276
H -1.3092225704 -2.0567003053 0.0737452502
H -1.1651104921 2.2542652905 0.0081084173
H 3.3577516908 0.4959699319 0.8609246383
H 3.3093998091 -1.0549229520 -0.0002866250
H 3.3356878462 0.4698982998 -0.9077304833
H -3.2922490700 1.0339223501 0.0531900875
H -3.3535763524 -0.6919999920 0.0791812955
