32
Final Frame from Quantum Espresso Output
Zn 1.2182902100 1.3071799410 0.7547006760
Zn 1.2182902100 0.0000000130 3.0188027260
Zn 1.2205067634 -1.3072062682 5.6628165572
Zn 1.2205737190 -2.6142902253 8.3201892650
Zn 1.2182902100 3.9215397970 0.7547006760
Zn 1.2182902100 2.6143598690 3.0188027260
Zn 1.2205053271 1.3071537923 5.6628184526
Zn 1.2205736367 0.0000694977 8.3201882035
Zn 6.0914510490 1.3071799410 0.7547006760
Zn 6.0914510490 0.0000000130 3.0188027260
Zn 6.0890573305 -1.3072082610 5.6609911407
Zn 6.0892249133 -2.6142905141 8.3202252824
Zn 6.0914510490 3.9215397970 0.7547006760
Zn 6.0914510490 2.6143598690 3.0188027260
Zn 6.0890581661 1.3071517478 5.6609895022
Zn 6.0892258520 0.0000693755 8.3202255694
Zn 3.6548706290 -0.0000000130 1.5094013740
Zn 3.6548706290 -1.3071799410 3.7735034240
Zn 3.6539394855 -2.6143241119 6.0733771510
Zn 3.6538333976 -3.9214620518 8.4703977493
Zn 3.6548706290 2.6143598430 1.5094013740
Zn 3.6548706290 1.3071799150 3.7735034240
Zn 3.6539407699 0.0000359492 6.0733764379
Zn 3.6538324805 -1.3071019788 8.4703966414
Zn 8.5280314680 -0.0000000130 1.5094013740
Zn 8.5280314680 -1.3071799410 3.7735034240
Zn 8.5286634890 -2.6143233511 6.0721050360
Zn 8.5291403712 -3.9214590887 8.4713083916
Zn 8.5280314680 2.6143598430 1.5094013740
Zn 8.5280314680 1.3071799150 3.7735034240
Zn 8.5286646528 0.0000360775 6.0721034287
Zn 8.5291412618 -1.3070989256 8.4713096017
