63
Final Frame from Quantum Espresso Output
Zn -1.0735560000 1.0841420000 1.1977640000
Zn -2.3094850000 6.1646920000 1.1977640000
Zn -4.2040084417 0.3134087087 4.3724878266
Zn -5.4405149677 5.3926265588 4.3771949593
Zn -8.1366366761 -0.6977205710 5.8242654679
Zn -9.3784634209 4.3671443015 5.7774923061
Zn -1.6915200000 3.6244170000 1.1977640000
Zn -2.9274500000 8.7049670000 1.1977640000
Zn -4.8205605369 2.8501175246 4.3743164258
Zn -6.0599810793 7.9356626390 4.3716755053
Zn -8.7573430924 1.8379428858 5.8221030645
Zn -9.9934472287 6.9214068165 5.8052471892
Zn 4.4565960000 1.0841420000 1.1977640000
Zn 3.2206660000 6.1646920000 1.1977640000
Zn 0.4276941182 0.1090029668 3.4640394458
Zn -0.8097488879 5.1919253106 3.4600485655
Zn -2.0555703966 -0.4913914669 5.6881216370
Zn -3.2952749185 4.5883614002 5.6906371291
Zn 3.8386310000 3.6244170000 1.1977640000
Zn 2.6027020000 8.7049670000 1.1977640000
Zn -0.1865061010 2.6503796235 3.4614391020
Zn -1.4274003194 7.7294944739 3.4686156985
Zn -2.6795781676 2.0468734141 5.6941079160
Zn -3.9072122609 7.1316239030 5.6843088462
Zn 1.6915200000 0.4114910000 0.8555450000
Zn 0.4555910000 5.4920410000 0.8555450000
Zn -2.2228553438 -0.5427346696 2.8804396586
Zn -3.4610186463 4.5349343257 2.8836019226
Zn -6.0343148342 -1.4878171640 4.4043536156
Zn -7.2612507841 3.5874919657 4.3936172677
Zn 1.0735560000 2.9517660000 0.8555450000
Zn -0.1623740000 8.0323160000 0.8555450000
Zn -2.8438611523 1.9955226990 2.8803207240
Zn -4.0764391423 7.0772193917 2.8828038456
Zn -6.6515287669 1.0482324002 4.4010395842
Zn -7.8818207384 6.1337556339 4.4061440671
Zn 7.2216720000 0.4114910000 0.8555450000
Zn 5.9857420000 5.4920410000 0.8555450000
Zn 3.0123252087 -0.6211853659 2.9227313662
Zn 1.7847864124 4.4637226624 2.9149190418
Zn 0.4299128954 -1.2163427410 5.8197635103
Zn -0.8168927747 3.8584335729 5.8032826973
Zn 6.6037070000 2.9517660000 0.8555450000
Zn 5.3677780000 8.0323160000 0.8555450000
Zn 2.3973734801 1.9188995118 2.9227839622
Zn 1.1614182735 7.0020342031 2.9250339430
Zn -0.1915307762 1.3234382016 5.8192655005
Zn -1.4223349545 6.4013946286 5.8327764322
C -13.1515095795 3.7363560184 13.5479482597
C -12.3345487507 4.0223419102 12.4166035542
C -12.8965853034 4.1200565894 11.1274081282
C -10.9475773926 4.2204787121 12.5671064576
C -12.1043602735 4.4206602166 10.0301457569
C -10.1538767061 4.5199406549 11.4704016457
C -10.7179441412 4.6384332355 10.1819325510
N -13.8231450282 3.5095639965 14.4765160234
N -9.9307771657 4.9189611725 9.0877658075
H -9.0102102708 5.3082657921 9.2489442051
H -10.3814535762 5.2428444679 8.2342472820
H -10.5001208304 4.1429607926 13.5580105248
H -13.9676391585 3.9640673214 10.9993639705
H -9.0813734225 4.6727293511 11.6037142041
H -12.5508072821 4.4961215231 9.0358027654
