66
Final Frame from Quantum Espresso Output
Zn 0.0000000000 1.5094010000 1.2182900000
Zn 5.2287200000 1.5094010000 1.2182900000
Zn -0.0039499689 1.5069040051 6.1594226724
Zn 5.2265807639 1.5070212469 6.2088604824
Zn -1.3071800000 3.7735030000 1.2182900000
Zn 3.9215400000 3.7735030000 1.2182900000
Zn -1.3084676213 3.7691679932 6.1895408443
Zn 3.9183770118 3.7694267198 6.1921230972
Zn -2.6143600000 6.0376050000 1.2182900000
Zn 2.6143600000 6.0376050000 1.2182900000
Zn -2.6170499038 6.0341448790 6.2078558479
Zn 2.6102624249 6.0333396212 6.2072877749
Zn -3.9215400000 8.3017080000 1.2182900000
Zn 1.3071800000 8.3017080000 1.2182900000
Zn -3.9241413821 8.2993426613 6.2107458162
Zn 1.3046999422 8.2990665580 6.2058805846
Zn 2.6143600000 1.5094010000 1.2182900000
Zn 7.8430800000 1.5094010000 1.2182900000
Zn 2.6139818571 1.5051124270 6.1553331066
Zn 7.8399681635 1.5069881233 6.2120581491
Zn 1.3071800000 3.7735030000 1.2182900000
Zn 6.5359000000 3.7735030000 1.2182900000
Zn 1.3067901476 3.7801742597 5.9322601494
Zn 6.5330911821 3.7715863083 6.2008071558
Zn 0.0000000000 6.0376050000 1.2182900000
Zn 5.2287200000 6.0376050000 1.2182900000
Zn -0.0016503253 6.0347476110 6.2001281362
Zn 5.2262795990 6.0347315255 6.2046191883
Zn -1.3071800000 8.3017080000 1.2182900000
Zn 3.9215400000 8.3017080000 1.2182900000
Zn -1.3097030119 8.2969808075 6.1994506319
Zn 3.9189269307 8.2966801091 6.1990676172
Zn 1.3057417828 0.7446650327 3.6993057585
Zn 6.5340432079 0.7537956227 3.7089694290
Zn -0.0164583773 3.0112937177 3.6606868027
Zn 5.2328104319 3.0182878903 3.7126969914
Zn -1.3153276180 5.2844258383 3.7110653229
Zn 3.9256028282 5.2853120583 3.7092163537
Zn -2.6177659136 7.5428100494 3.7165382552
Zn 2.6147836508 7.5480653127 3.7185684783
Zn 3.9238431512 0.7486941679 3.7169370833
Zn 9.1438667696 0.7488240259 3.7134871364
Zn 2.6281122113 3.0115694516 3.6619996909
Zn 7.8364437175 3.0183173479 3.7216582461
Zn 1.3055118594 5.2999166444 3.6601773488
Zn 6.5339475389 5.2825981266 3.7148680489
Zn -0.0041248630 7.5490469729 3.7135545038
Zn 5.2286256815 7.5428925535 3.7133180482
C 1.1010820106 3.2383835189 13.3450590763
C 1.8966870244 2.3435128206 12.6189527134
C 1.0428344715 3.1928377990 14.8441118315
C 0.3494923454 4.1896918796 12.6340312155
C 0.3835009358 4.2469264875 11.2440318014
C 1.9464401911 2.3837326254 11.2246730465
C 1.1848382795 3.3363640897 10.5603605528
N 1.2277686444 3.3915959320 9.0868809759
H 1.6433459936 4.2628553804 8.7008991515
H 1.3680776902 4.1491134475 15.2769730125
H 1.6791543108 2.3996809181 15.2527470938
H 2.4896589103 1.6001201956 13.1517722650
H -0.2745615300 4.8964287817 13.1814019609
H -0.2063476936 4.9903712733 10.7060485086
H 2.5719755996 1.6791518090 10.6736769763
H 1.7836017221 2.6258198277 8.6618522742
H 0.2961441481 3.3194764331 8.6267649321
H 0.0139318470 3.0204886152 15.1899076235
