62
Frame from Quantum Espresso Output
Zn 0.0000000000 1.5094010000 1.2182900000
Zn 5.2287200000 1.5094010000 1.2182900000
Zn -0.0000033795 1.5092524619 6.1607973844
Zn 5.2287591933 1.5102713952 6.1620023200
Zn -1.3071800000 3.7735030000 1.2182900000
Zn 3.9215400000 3.7735030000 1.2182900000
Zn -1.3076970472 3.7740371003 6.1610667879
Zn 3.9220400843 3.7746094191 6.1609748412
Zn -2.6143600000 6.0376050000 1.2182900000
Zn 2.6143600000 6.0376050000 1.2182900000
Zn -2.6152413209 6.0372108510 6.1607158964
Zn 2.6150959090 6.0372133831 6.1600242442
Zn -3.9215400000 8.3017080000 1.2182900000
Zn 1.3071800000 8.3017080000 1.2182900000
Zn -3.9219245491 8.3006693140 6.1605600196
Zn 1.3075940189 8.3010857717 6.1624385500
Zn 2.6143600000 1.5094010000 1.2182900000
Zn 7.8430800000 1.5094010000 1.2182900000
Zn 2.6141849768 1.5096024626 6.1609201384
Zn 7.8432058519 1.5099167250 6.1619306432
Zn 1.3071800000 3.7735030000 1.2182900000
Zn 6.5359000000 3.7735030000 1.2182900000
Zn 1.3075310245 3.7740393571 6.1613069928
Zn 6.5356487188 3.7746106351 6.1609832255
Zn 0.0000000000 6.0376050000 1.2182900000
Zn 5.2287200000 6.0376050000 1.2182900000
Zn -0.0000589346 6.0372667780 6.1621072918
Zn 5.2288100592 6.0372079178 6.1610939338
Zn -1.3071800000 8.3017080000 1.2182900000
Zn 3.9215400000 8.3017080000 1.2182900000
Zn -1.3077723168 8.3010296500 6.1615909108
Zn 3.9219992211 8.3007146464 6.1619169542
Zn 1.3067193524 0.7542222365 3.6891792064
Zn 6.5364323861 0.7556449046 3.6915818661
Zn -0.0010271658 3.0193841078 3.6900877467
Zn 5.2296583605 3.0204489315 3.6916391279
Zn -1.3085336877 5.2823449473 3.6911874107
Zn 3.9227766061 5.2827797038 3.6916562075
Zn -2.6150775861 7.5454138763 3.6904032143
Zn 2.6150179871 7.5465046838 3.6914746096
Zn 3.9221338623 0.7551651151 3.6900854617
Zn 9.1495577984 0.7547829630 3.6906018065
Zn 2.6153590938 3.0200045234 3.6901861053
Zn 7.8421292863 3.0198435451 3.6916810443
Zn 1.3076870923 5.2830343611 3.6912579050
Zn 6.5354943001 5.2821838228 3.6918164027
Zn 0.0001847544 7.5464991496 3.6910653818
Zn 5.2285568444 7.5454107698 3.6907844494
C 2.7097624654 6.1264868330 10.9750262521
C 2.2225740256 7.2464410980 13.0787607913
C 2.2085185601 7.2345585004 11.6850495537
C 3.2298179527 5.0619836544 13.0996170792
C 3.2219047735 5.0372186365 11.7059470305
C 2.7315126141 6.1634161358 13.8008498856
N 2.6991781942 6.1084334959 9.5977611760
H 3.0571563578 5.3161773264 9.0821201740
H 1.8284998830 8.1172561311 13.6050828964
H 3.6325887732 4.2053608219 13.6423627000
H 3.6152163004 4.1681481132 11.1730239860
H 2.7403113165 6.1778501268 14.8909341773
H 1.8066400967 8.0893432833 11.1357463017
H 2.3319038703 6.8867163516 9.0671644008
62
Frame from Quantum Espresso Output
Zn 0.0000000000 1.5094010000 1.2182900000
Zn 5.2287200000 1.5094010000 1.2182900000
Zn 0.0000656698 1.5092167324 6.1585341176
Zn 5.2286608235 1.5098822650 6.1597971139
Zn -1.3071800000 3.7735030000 1.2182900000
Zn 3.9215400000 3.7735030000 1.2182900000
Zn -1.3073380460 3.7738905329 6.1589993019
Zn 3.9215220773 3.7745699697 6.1589543599
Zn -2.6143600000 6.0376050000 1.2182900000
Zn 2.6143600000 6.0376050000 1.2182900000
Zn -2.6149427271 6.0374517178 6.1586629924
Zn 2.6146359372 6.0372430099 6.1547246036
Zn -3.9215400000 8.3017080000 1.2182900000
Zn 1.3071800000 8.3017080000 1.2182900000
Zn -3.9219162095 8.3010173763 6.1583521327
Zn 1.3076879649 8.3009242169 6.1602322747
Zn 2.6143600000 1.5094010000 1.2182900000
Zn 7.8430800000 1.5094010000 1.2182900000
Zn 2.6142720589 1.5096644735 6.1585620460
Zn 7.8431331900 1.5095146763 6.1597919875
Zn 1.3071800000 3.7735030000 1.2182900000
Zn 6.5359000000 3.7735030000 1.2182900000
Zn 1.3079490942 3.7742569732 6.1600782637
Zn 6.5355764729 3.7742141360 6.1590447516
Zn 0.0000000000 6.0376050000 1.2182900000
Zn 5.2287200000 6.0376050000 1.2182900000
Zn 0.0006201315 6.0376030324 6.1610735986
Zn 5.2280902835 6.0372856383 6.1605352636
Zn -1.3071800000 8.3017080000 1.2182900000
Zn 3.9215400000 8.3017080000 1.2182900000
Zn -1.3074150907 8.3012624514 6.1592563851
Zn 3.9213918058 8.3006083527 6.1609582260
Zn 1.3069068166 0.7544230183 3.6893305312
Zn 6.5363587920 0.7550007417 3.6919133852
Zn -0.0006856022 3.0191914541 3.6898945722
Zn 5.2291210978 3.0200686994 3.6918386073
Zn -1.3081214033 5.2825359491 3.6907877094
Zn 3.9221387833 5.2826825887 3.6917630382
Zn -2.6147551146 7.5459207818 3.6904378467
Zn 2.6145661621 7.5466180724 3.6916154829
Zn 3.9219408733 0.7549824387 3.6901366438
Zn 9.1495977000 0.7547369669 3.6906000968
Zn 2.6151535894 3.0197903443 3.6904694595
Zn 7.8424968134 3.0195137779 3.6916594262
Zn 1.3077346064 5.2831124674 3.6917650350
Zn 6.5356428888 5.2823116126 3.6914643138
Zn 0.0003790322 7.5467043331 3.6913012560
Zn 5.2284349349 7.5458822083 3.6908342007
C 2.7095212451 6.1264145003 10.9765380703
C 2.2223749612 7.2466360054 13.0785554475
C 2.2084486781 7.2348211147 11.6855605457
C 3.2299167778 5.0617791985 13.0994514894
C 3.2223444842 5.0372434949 11.7065089760
C 2.7316707550 6.1634874039 13.8007229841
N 2.6993002407 6.1085791181 9.5976243873
H 3.0569432190 5.3167070822 9.0788794732
H 1.8284576928 8.1173765396 13.6053330994
H 3.6325672049 4.2052624485 13.6425768191
H 3.6150769781 4.1683578411 11.1726879751
H 2.7402801752 6.1778323420 14.8906403163
H 1.8067780853 8.0891281726 11.1353729896
H 2.3322433875 6.8861485518 9.0639045235
62
Frame from Quantum Espresso Output
Zn 0.0000000000 1.5094010000 1.2182900000
Zn 5.2287200000 1.5094010000 1.2182900000
Zn 0.0001273967 1.5091590977 6.1550534380
Zn 5.2285551724 1.5094103359 6.1563977828
Zn -1.3071800000 3.7735030000 1.2182900000
Zn 3.9215400000 3.7735030000 1.2182900000
Zn -1.3068841575 3.7737118671 6.1557742508
Zn 3.9208771224 3.7745595151 6.1558029799
Zn -2.6143600000 6.0376050000 1.2182900000
Zn 2.6143600000 6.0376050000 1.2182900000
Zn -2.6145971146 6.0377344080 6.1554378235
Zn 2.6140614206 6.0372711575 6.1467658926
Zn -3.9215400000 8.3017080000 1.2182900000
Zn 1.3071800000 8.3017080000 1.2182900000
Zn -3.9219609310 8.3014159672 6.1549295330
Zn 1.3078494452 8.3007164234 6.1568554670
Zn 2.6143600000 1.5094010000 1.2182900000
Zn 7.8430800000 1.5094010000 1.2182900000
Zn 2.6143916232 1.5097758526 6.1549605082
Zn 7.8430357352 1.5089927223 6.1564765419
Zn 1.3071800000 3.7735030000 1.2182900000
Zn 6.5359000000 3.7735030000 1.2182900000
Zn 1.3085235175 3.7745607964 6.1581314438
Zn 6.5354637378 3.7737256039 6.1559739664
Zn 0.0000000000 6.0376050000 1.2182900000
Zn 5.2287200000 6.0376050000 1.2182900000
Zn 0.0015174917 6.0380374608 6.1594129847
Zn 5.2271260774 6.0373624073 6.1595042401
Zn -1.3071800000 8.3017080000 1.2182900000
Zn 3.9215400000 8.3017080000 1.2182900000
Zn -1.3069398736 8.3015449907 6.1556853300
Zn 3.9205823561 8.3004301034 6.1593881866
Zn 1.3071311398 0.7546579104 3.6894970172
Zn 6.5362947728 0.7542000731 3.6923410899
Zn -0.0002777029 3.0189297521 3.6895587837
Zn 5.2284491794 3.0196386002 3.6920743843
Zn -1.3076639624 5.2827653491 3.6901476873
Zn 3.9213884186 5.2825442927 3.6918902387
Zn -2.6143861606 7.5465252566 3.6904357932
Zn 2.6140248294 7.5467788548 3.6917894652
Zn 3.9216641405 0.7547498805 3.6901381168
Zn 9.1496555820 0.7546918104 3.6905407998
Zn 2.6149036847 3.0194990797 3.6908254760
Zn 7.8429590761 3.0191233571 3.6915552303
Zn 1.3077826850 5.2831848707 3.6924750179
Zn 6.5358436431 5.2824723028 3.6908918343
Zn 0.0005885620 7.5469661113 3.6915860304
Zn 5.2283129528 7.5464637069 3.6908600880
C 2.7092444144 6.1263565632 10.9773124873
C 2.2221410206 7.2469051371 13.0788521916
C 2.2082856112 7.2352152330 11.6859275797
C 3.2300867327 5.0615540986 13.0997895415
C 3.2229436397 5.0371521429 11.7068996323
C 2.7318531845 6.1635918690 13.8003237681
N 2.6995151078 6.1086795647 9.5971220435
H 3.0564353276 5.3179245834 9.0747244315
H 1.8284090374 8.1175171303 13.6056690592
H 3.6325271112 4.2051382633 13.6428701061
H 3.6148699065 4.1687144552 11.1722278521
H 2.7402370276 6.1778103586 14.8902773402
H 1.8069824162 8.0888074084 11.1348388678
H 2.3329021867 6.8849803456 9.0596793903
62
Frame from Quantum Espresso Output
Zn 0.0000000000 1.5094010000 1.2182900000
Zn 5.2287200000 1.5094010000 1.2182900000
Zn 0.0002078175 1.5090884769 6.1498927100
Zn 5.2284084281 1.5087617813 6.1513599643
Zn -1.3071800000 3.7735030000 1.2182900000
Zn 3.9215400000 3.7735030000 1.2182900000
Zn -1.3062451439 3.7734852147 6.1509793460
Zn 3.9200397806 3.7744889209 6.1511352503
Zn -2.6143600000 6.0376050000 1.2182900000
Zn 2.6143600000 6.0376050000 1.2182900000
Zn -2.6141138125 6.0381159377 6.1506322306
Zn 2.6132663556 6.0373174614 6.1348232128
Zn -3.9215400000 8.3017080000 1.2182900000
Zn 1.3071800000 8.3017080000 1.2182900000
Zn -3.9220226994 8.3019510045 6.1498476025
Zn 1.3080384680 8.3004822200 6.1518646449
Zn 2.6143600000 1.5094010000 1.2182900000
Zn 7.8430800000 1.5094010000 1.2182900000
Zn 2.6145617199 1.5099066545 6.1496299087
Zn 7.8428987361 1.5082991929 6.1515667572
Zn 1.3071800000 3.7735030000 1.2182900000
Zn 6.5359000000 3.7735030000 1.2182900000
Zn 1.3092595301 3.7749267324 6.1552895787
Zn 6.5353207399 3.7730544451 6.1513995808
Zn 0.0000000000 6.0376050000 1.2182900000
Zn 5.2287200000 6.0376050000 1.2182900000
Zn 0.0026750197 6.0386272553 6.1569965002
Zn 5.2258511309 6.0374514947 6.1580215185
Zn -1.3071800000 8.3017080000 1.2182900000
Zn 3.9215400000 8.3017080000 1.2182900000
Zn -1.3062962812 8.3019309556 6.1503921354
Zn 3.9194791918 8.3002212009 6.1571125855
Zn 1.3074388512 0.7550086694 3.6896995262
Zn 6.5361883553 0.7530715775 3.6928875158
Zn 0.0003505463 3.0185975213 3.6890093537
Zn 5.2275090821 3.0190132651 3.6923860123
Zn -1.3069475092 5.2831136700 3.6891830530
Zn 3.9203480325 5.2823726215 3.6919220816
Zn -2.6138448282 7.5473690119 3.6904265612
Zn 2.6132806108 7.5470145644 3.6918560310
Zn 3.9212945489 0.7544223507 3.6900698360
Zn 9.1497333112 0.7545903699 3.6903832970
Zn 2.6145212150 3.0190743697 3.6912277330
Zn 7.8435794538 3.0185441783 3.6914075538
Zn 1.3077883606 5.2832634931 3.6933562986
Zn 6.5360852171 5.2827092221 3.6900552836
Zn 0.0008665140 7.5473179029 3.6918820390
Zn 5.2281071916 7.5472723769 3.6908239956
C 2.7090485114 6.1262976523 10.9771607552
C 2.2219064010 7.2472247658 13.0789654195
C 2.2081843001 7.2352958905 11.6862332282
C 3.2303624655 5.0613564998 13.0998941141
C 3.2234297653 5.0374322352 11.7072398287
C 2.7320445544 6.1637376848 13.8002997721
N 2.6997589689 6.1089210988 9.5957072843
H 3.0556248154 5.3198780800 9.0694707923
H 1.8282884213 8.1178207567 13.6063059581
H 3.6325243518 4.2048536165 13.6434624583
H 3.6146945799 4.1690535057 11.1715175828
H 2.7401772459 6.1777875400 14.8897169448
H 1.8071816486 8.0885421273 11.1340234405
H 2.3339893392 6.8830255980 9.0543844567
62
Frame from Quantum Espresso Output
Zn 0.0000000000 1.5094010000 1.2182900000
Zn 5.2287200000 1.5094010000 1.2182900000
Zn 0.0003422739 1.5089975121 6.1421076387
Zn 5.2281815289 1.5078573800 6.1437699013
Zn -1.3071800000 3.7735030000 1.2182900000
Zn 3.9215400000 3.7735030000 1.2182900000
Zn -1.3052731428 3.7732257187 6.1437267625
Zn 3.9188913303 3.7744002696 6.1441435097
Zn -2.6143600000 6.0376050000 1.2182900000
Zn 2.6143600000 6.0376050000 1.2182900000
Zn -2.6134400733 6.0386488900 6.1433553546
Zn 2.6121773553 6.0373919209 6.1169026171
Zn -3.9215400000 8.3017080000 1.2182900000
Zn 1.3071800000 8.3017080000 1.2182900000
Zn -3.9221514825 8.3026633582 6.1421748485
Zn 1.3082953497 8.3001375700 6.1444242814
Zn 2.6143600000 1.5094010000 1.2182900000
Zn 7.8430800000 1.5094010000 1.2182900000
Zn 2.6147911560 1.5100955440 6.1416073082
Zn 7.8427139753 1.5073121357 6.1441764865
Zn 1.3071800000 3.7735030000 1.2182900000
Zn 6.5359000000 3.7735030000 1.2182900000
Zn 1.3102425379 3.7754263141 6.1510621228
Zn 6.5350840582 3.7721631229 6.1444746050
Zn 0.0000000000 6.0376050000 1.2182900000
Zn 5.2287200000 6.0376050000 1.2182900000
Zn 0.0042586203 6.0394229398 6.1534144359
Zn 5.2240489213 6.0375688146 6.1558164291
Zn -1.3071800000 8.3017080000 1.2182900000
Zn 3.9215400000 8.3017080000 1.2182900000
Zn -1.3053932512 8.3024480372 6.1424273983
Zn 3.9179439664 8.2998884685 6.1537431733
Zn 1.3078666615 0.7555302862 3.6898276486
Zn 6.5360026299 0.7515292869 3.6934917727
Zn 0.0013067055 3.0181738472 3.6880450907
Zn 5.2261954634 3.0181002054 3.6926851281
Zn -1.3058434914 5.2836229542 3.6876459237
Zn 3.9189427933 5.2821447876 3.6918037243
Zn -2.6130715950 7.5485583149 3.6902871309
Zn 2.6122759199 7.5473574070 3.6917518640
Zn 3.9207911810 0.7539821810 3.6897479710
Zn 9.1498580291 0.7544110896 3.6899734002
Zn 2.6139430189 3.0184396563 3.6916081443
Zn 7.8444017152 3.0176864498 3.6910392019
Zn 1.3077032733 5.2833153006 3.6944715404
Zn 6.5363549587 5.2830521193 3.6887331689
Zn 0.0012208855 7.5477940203 3.6921159739
Zn 5.2277858389 7.5483917259 3.6906425340
C 2.7089178788 6.1263942097 10.9761021417
C 2.2217386686 7.2474657245 13.0791551746
C 2.2079531244 7.2354440834 11.6859542054
C 3.2306883318 5.0613945234 13.1001204602
C 3.2240413954 5.0375793082 11.7069456940
C 2.7322649316 6.1638902416 13.7998270532
N 2.7001947960 6.1090655311 9.5929334717
H 3.0545302307 5.3225708866 9.0626974291
H 1.8281507607 8.1181592732 13.6071458373
H 3.6324818329 4.2045569784 13.6442317591
H 3.6144297335 4.1696987080 11.1706713771
H 2.7400992887 6.1777736081 14.8893993249
H 1.8075002211 8.0880670094 11.1330169793
H 2.3354260604 6.8805172074 9.0474635490
62
Frame from Quantum Espresso Output
Zn 0.0000000000 1.5094010000 1.2182900000
Zn 5.2287200000 1.5094010000 1.2182900000
Zn 0.0005003082 1.5088644936 6.1302303957
Zn 5.2278836947 1.5066002954 6.1322147193
Zn -1.3071800000 3.7735030000 1.2182900000
Zn 3.9215400000 3.7735030000 1.2182900000
Zn -1.3038887029 3.7729072611 6.1326017882
Zn 3.9174005417 3.7742346507 6.1335295334
Zn -2.6143600000 6.0376050000 1.2182900000
Zn 2.6143600000 6.0376050000 1.2182900000
Zn -2.6125178156 6.0393671239 6.1321763331
Zn 2.6107013946 6.0375446886 6.0900128154
Zn -3.9215400000 8.3017080000 1.2182900000
Zn 1.3071800000 8.3017080000 1.2182900000
Zn -3.9223846872 8.3035960474 6.1304546248
Zn 1.3086231251 8.2997249713 6.1331709193
Zn 2.6143600000 1.5094010000 1.2182900000
Zn 7.8430800000 1.5094010000 1.2182900000
Zn 2.6150879252 1.5103081437 6.1294302705
Zn 7.8424876988 1.5059673291 6.1329060221
Zn 1.3071800000 3.7735030000 1.2182900000
Zn 6.5359000000 3.7735030000 1.2182900000
Zn 1.3114687655 3.7760390770 6.1445940333
Zn 6.5347819540 3.7709703669 6.1338440191
Zn 0.0000000000 6.0376050000 1.2182900000
Zn 5.2287200000 6.0376050000 1.2182900000
Zn 0.0063095849 6.0404925029 6.1478940631
Zn 5.2216341307 6.0377359958 6.1523273712
Zn -1.3071800000 8.3017080000 1.2182900000
Zn 3.9215400000 8.3017080000 1.2182900000
Zn -1.3041618387 8.3031298165 6.1303113448
Zn 3.9158618767 8.2994686536 6.1485509304
Zn 1.3083953006 0.7562496124 3.6897902562
Zn 6.5357365490 0.7494270825 3.6940861133
Zn 0.0026641456 3.0176514384 3.6863993392
Zn 5.2244348623 3.0168017077 3.6928703483
Zn -1.3042158699 5.2843585951 3.6851733965
Zn 3.9171139945 5.2818719761 3.6912421027
Zn -2.6119924398 7.5501459818 3.6898770350
Zn 2.6109490398 7.5479123525 3.6911799508
Zn 3.9201403056 0.7533534396 3.6889745196
Zn 9.1500401257 0.7541083169 3.6891285959
Zn 2.6130717869 3.0175161965 3.6918121722
Zn 7.8455081769 3.0164613739 3.6902795647
Zn 1.3073797736 5.2833165780 3.6956932227
Zn 6.5366900245 5.2835623640 3.6865968522
Zn 0.0016420842 7.5484047832 3.6921025275
Zn 5.2273124228 7.5499337434 3.6901247452
C 2.7089997454 6.1264242713 10.9733507384
C 2.2214763869 7.2479587483 13.0786632991
C 2.2077939297 7.2352385751 11.6854472013
C 3.2312926945 5.0612280180 13.0995391953
C 3.2244728367 5.0383583632 11.7065103233
C 2.7324973336 6.1641737779 13.7998019009
N 2.7006767325 6.1096313594 9.5889740356
H 3.0533354689 5.3256565724 9.0534975866
H 1.8280616921 8.1183791752 13.6081643731
H 3.6323125164 4.2044188951 13.6451558364
H 3.6142582993 4.1703157634 11.1693454030
H 2.7399930467 6.1777679131 14.8888153749
H 1.8078073821 8.0876579762 11.1315141130
H 2.3372689439 6.8774263387 9.0382078225
62
Frame from Quantum Espresso Output
Zn 0.0000000000 1.5094010000 1.2182900000
Zn 5.2287200000 1.5094010000 1.2182900000
Zn 0.0006771611 1.5087064800 6.1127424862
Zn 5.2274988254 1.5050263429 6.1152450187
Zn -1.3071800000 3.7735030000 1.2182900000
Zn 3.9215400000 3.7735030000 1.2182900000
Zn -1.3019815053 3.7726850663 6.1161183545
Zn 3.9157184657 3.7739685829 6.1180173379
Zn -2.6143600000 6.0376050000 1.2182900000
Zn 2.6143600000 6.0376050000 1.2182900000
Zn -2.6113726321 6.0402265313 6.1155863224
Zn 2.6089359788 6.0378139390 6.0511356958
Zn -3.9215400000 8.3017080000 1.2182900000
Zn 1.3071800000 8.3017080000 1.2182900000
Zn -3.9228299484 8.3045901756 6.1131722655
Zn 1.3089480195 8.2992748413 6.1168244302
Zn 2.6143600000 1.5094010000 1.2182900000
Zn 7.8430800000 1.5094010000 1.2182900000
Zn 2.6154306779 1.5105250714 6.1116154543
Zn 7.8422565790 1.5043026356 6.1163355498
Zn 1.3071800000 3.7735030000 1.2182900000
Zn 6.5359000000 3.7735030000 1.2182900000
Zn 1.3127355017 3.7766758508 6.1351314155
Zn 6.5343871664 3.7696298070 6.1180881993
Zn 0.0000000000 6.0376050000 1.2182900000
Zn 5.2287200000 6.0376050000 1.2182900000
Zn 0.0085940002 6.0417478759 6.1397939020
Zn 5.2187243616 6.0379334247 6.1470867326
Zn -1.3071800000 8.3017080000 1.2182900000
Zn 3.9215400000 8.3017080000 1.2182900000
Zn -1.3026300957 8.3038721335 6.1125479043
Zn 3.9133385978 8.2989407590 6.1409291606
Zn 1.3089616226 0.7571993212 3.6891130959
Zn 6.5353198701 0.7468243997 3.6941345976
Zn 0.0045502755 3.0171585723 3.6835122074
Zn 5.2222565218 3.0150529759 3.6925036457
Zn -1.3018384086 5.2853760295 3.6812461701
Zn 3.9150491346 5.2815804916 3.6895977528
Zn -2.6105843553 7.5520786480 3.6888123817
Zn 2.6094000190 7.5487840117 3.6893894538
Zn 3.9194330141 0.7525592901 3.6870739258
Zn 9.1502918028 0.7535618329 3.6872897795
Zn 2.6118182144 3.0162571091 3.6912260857
Zn 7.8468083073 3.0147909720 3.6886642418
Zn 1.3065026969 5.2831251739 3.6964577881
Zn 6.5369454104 5.2842894376 3.6832165846
Zn 0.0020547164 7.5490754878 3.6912240796
Zn 5.2266004426 7.5518518785 3.6888309903
C 2.7092739457 6.1270991362 10.9690309280
C 2.2216398151 7.2477240219 13.0777727181
C 2.2076929485 7.2347071027 11.6828838762
C 3.2315621323 5.0623070222 13.0988116830
C 3.2248876637 5.0389362663 11.7037814176
C 2.7327915921 6.1643064483 13.7984059507
N 2.7017491261 6.1095834747 9.5813097156
H 3.0520195641 5.3293041679 9.0431755949
H 1.8280826675 8.1182837820 13.6089066081
H 3.6319638471 4.2046333668 13.6457621073
H 3.6141239178 4.1712931765 11.1677908129
H 2.7398671400 6.1778145520 14.8886360884
H 1.8081136129 8.0872107418 11.1296573913
H 2.3392151264 6.8745227929 9.0274284307
