63
Final Frame from Quantum Espresso Output
Zn 0.0000000000 1.5094010000 1.2182900000
Zn 5.2287200000 1.5094010000 1.2182900000
Zn -0.0039317218 1.5193978829 6.1373047692
Zn 5.2224149854 1.5196911642 6.2263769424
Zn -1.3071800000 3.7735030000 1.2182900000
Zn 3.9215400000 3.7735030000 1.2182900000
Zn -1.3199399483 3.7820826890 6.1386027711
Zn 3.9096957057 3.7814058874 6.0917653561
Zn -2.6143600000 6.0376050000 1.2182900000
Zn 2.6143600000 6.0376050000 1.2182900000
Zn -2.6280630793 6.0440900227 6.1609494803
Zn 2.6059561881 6.0427959983 6.1417036097
Zn -3.9215400000 8.3017080000 1.2182900000
Zn 1.3071800000 8.3017080000 1.2182900000
Zn -3.9307755792 8.3116661685 6.1853724738
Zn 1.2971939437 8.3145119123 6.1423577660
Zn 2.6143600000 1.5094010000 1.2182900000
Zn 7.8430800000 1.5094010000 1.2182900000
Zn 2.6065442978 1.5261764062 6.1298402611
Zn 7.8321789318 1.5212967448 6.1698125085
Zn 1.3071800000 3.7735030000 1.2182900000
Zn 6.5359000000 3.7735030000 1.2182900000
Zn 1.2985243234 3.7819933659 6.1284726870
Zn 6.5273238247 3.7789754846 6.1699980349
Zn 0.0000000000 6.0376050000 1.2182900000
Zn 5.2287200000 6.0376050000 1.2182900000
Zn -0.0160435280 6.0513392539 6.1111137228
Zn 5.2138487765 6.0394099460 6.1358504240
Zn -1.3071800000 8.3017080000 1.2182900000
Zn 3.9215400000 8.3017080000 1.2182900000
Zn -1.3169367454 8.3193378572 6.1655068018
Zn 3.9149879791 8.3042124265 6.1457851506
Zn 1.3021613274 0.7543308302 3.6836839065
Zn 6.5280267412 0.7639239793 3.6872759583
Zn -0.0115268242 3.0242626071 3.6787822351
Zn 5.2304503981 3.0184783635 3.6997682320
Zn -1.3216483512 5.2893601554 3.6796653094
Zn 3.9222684578 5.2897198673 3.6664099410
Zn -2.6229302438 7.5570382668 3.6995986013
Zn 2.6068173125 7.5593495110 3.6791851995
Zn 3.9179341250 0.7617339778 3.6908815396
Zn 9.1427232756 0.7605689362 3.6987678183
Zn 2.6129998875 3.0184441255 3.6612366349
Zn 7.8342031902 3.0230962580 3.6818638202
Zn 1.3016704380 5.2913536515 3.6592640380
Zn 6.5290688152 5.2885852515 3.6887114984
Zn -0.0083313925 7.5625679299 3.6862867752
Zn 5.2267474959 7.5559652867 3.6876331412
C 4.6879876082 2.9388711269 9.5130456828
C 3.5135031536 3.7397992914 9.5082304239
C 3.5933957781 5.1472793402 9.4791832716
C 2.2401929789 3.1338707741 9.4704530486
C 2.4443070113 5.9208244816 9.4204124017
C 1.0892671370 3.9025892947 9.4074727413
C 1.1650623846 5.3154378995 9.4009331641
N 5.6435771124 2.2633521376 9.4974741419
N 0.0319743620 6.0743927221 9.3719923917
H -0.8654982844 5.6349781870 9.1982490187
H 0.0974946459 7.0714316557 9.1989131628
H 2.1644216247 2.0468793749 9.4773422754
H 4.5724913381 5.6263580660 9.4789681004
H 0.1140654787 3.4146167591 9.3736589975
H 2.5267885262 7.0074746677 9.3757282170
