63
Final Frame from Quantum Espresso Output
Zn 1.2182900000 1.3071800000 0.7547010000
Zn 1.2182900000 6.5359000000 0.7547010000
Zn 1.4956073372 -0.0136458554 3.6174248348
Zn 1.5005122913 5.2489402148 3.6009130840
Zn 0.9869213980 -1.2945734561 6.1893768445
Zn 0.9183344491 3.9405787702 6.0699167184
Zn 1.2182900000 3.9215400000 0.7547010000
Zn 1.2182900000 9.1502600000 0.7547010000
Zn 1.5521817972 2.6232570828 3.5852178660
Zn 1.4620706771 7.8611964730 3.6800255968
Zn 0.9333274799 1.2980106717 6.1261850244
Zn 0.9733453166 6.5488371836 6.1490662736
Zn 6.0914510000 1.3071800000 0.7547010000
Zn 6.0914510000 6.5359000000 0.7547010000
Zn 6.3699654985 -0.0194514450 3.4872245900
Zn 6.3821273283 5.2529398304 3.6870081859
Zn 5.8642559421 -1.2859761611 6.1084804803
Zn 5.8382082372 3.9073252909 6.1223155658
Zn 6.0914510000 3.9215400000 0.7547010000
Zn 6.0914510000 9.1502600000 0.7547010000
Zn 6.4204035865 2.6065974981 3.5248568498
Zn 6.3149809254 7.8474527510 3.6898994034
Zn 5.8561047224 1.2909831115 5.9473269259
Zn 5.8556010622 6.5513036023 6.2578808956
Zn 3.6548710000 0.0000000000 1.5094010000
Zn 3.6548710000 5.2287200000 1.5094010000
Zn 3.9227099161 -1.3015420582 3.7605336575
Zn 4.0483645638 3.9260334219 3.8108949564
Zn 3.4090328539 -2.5991188916 6.1614407923
Zn 3.2743183544 2.6338633270 6.1121008156
Zn 3.6548710000 2.6143600000 1.5094010000
Zn 3.6548710000 7.8430800000 1.5094010000
Zn 4.0003892405 1.3175250821 3.7926275787
Zn 3.9421378722 6.5305261522 3.7769524817
Zn 3.3725066894 0.0128703346 6.1143698315
Zn 3.3731694657 5.2497072523 6.1581840588
Zn 8.5280310000 0.0000000000 1.5094010000
Zn 8.5280310000 5.2287200000 1.5094010000
Zn 8.8178210479 -1.2983017746 3.7886261820
Zn 8.8863804835 3.9274888219 3.7924870736
Zn 8.2874489525 -2.5980676374 6.1258557057
Zn 8.2453156726 2.6126796656 6.1457265500
Zn 8.5280310000 2.6143600000 1.5094010000
Zn 8.5280310000 7.8430800000 1.5094010000
Zn 8.9116443033 1.3180704498 3.7732801843
Zn 8.7946831494 6.5372936283 3.8059120756
Zn 8.2777533041 0.0113922596 6.1232211281
Zn 8.2535448384 5.2262519937 6.1257008321
C 3.5991309461 2.2966357461 14.6697287970
C 3.7930700372 2.0753789082 13.2771342107
C 4.8808556639 2.6794975028 12.6162020140
C 2.9009194898 1.2882586040 12.5210621640
C 5.0144502407 2.6021631331 11.2357027193
C 3.0285123541 1.2137309009 11.1407182795
C 4.0611033665 1.9031991082 10.4644881881
N 3.4225121550 2.5332107706 15.7993666600
N 4.1154472002 1.9120770080 9.0823314240
H 3.6129205078 1.1870420889 8.5810828971
H 5.0075049492 2.1161579652 8.6445479797
H 2.1014260354 0.7488813603 13.0293978430
H 5.5948335082 3.2654443811 13.1921675421
H 2.3269242141 0.5950661317 10.5770075970
H 5.8374738962 3.1223918286 10.7358718391
