79
Final Frame from Quantum Espresso Output
Zn 1.2182902100 1.3071799380 0.7547006810
Zn 1.2182902100 6.5358996490 0.7547006810
Zn 1.2182902100 0.0000000010 3.0188027470
Zn 1.2182902100 5.2287197120 3.0188027470
Zn 1.2184034878 -1.3074400870 5.6739297103
Zn 1.2185110721 3.9215891496 5.6730314713
Zn 1.2185027959 -2.6146593817 8.3126395652
Zn 1.2185238586 2.6147969938 8.3120476542
Zn 1.2182902100 3.9215397940 0.7547006810
Zn 1.2182902100 9.1502595050 0.7547006810
Zn 1.2182902100 2.6143598570 3.0188027470
Zn 1.2182902100 7.8430795680 3.0188027470
Zn 1.2185349545 1.3071344191 5.6734082491
Zn 1.2184401114 6.5358719420 5.6737435821
Zn 1.2185155565 -0.0005336726 8.3124493889
Zn 1.2185364757 5.2292125901 8.3121346587
Zn 6.0914510490 1.3071799380 0.7547006810
Zn 6.0914510490 6.5358996490 0.7547006810
Zn 6.0914510490 0.0000000010 3.0188027470
Zn 6.0914510490 5.2287197120 3.0188027470
Zn 6.0912948282 -1.3072963043 5.6758004784
Zn 6.0912379355 3.9214561955 5.6751379937
Zn 6.0912578766 -2.6146980109 8.3125376596
Zn 6.0911495561 2.6148452654 8.3119863867
Zn 6.0914510490 3.9215397940 0.7547006810
Zn 6.0914510490 9.1502595050 0.7547006810
Zn 6.0914510490 2.6143598570 3.0188027470
Zn 6.0914510490 7.8430795680 3.0188027470
Zn 6.0912412160 1.3074215864 5.6754696593
Zn 6.0912427314 6.5355852212 5.6756365967
Zn 6.0912459779 -0.0003600407 8.3124582750
Zn 6.0912007007 5.2290666703 8.3120397743
Zn 3.6548706290 -0.0000000190 1.5094013850
Zn 3.6548706290 5.2287196920 1.5094013850
Zn 3.6548706290 -1.3071799560 3.7735034500
Zn 3.6548706290 3.9215397550 3.7735034500
Zn 3.6546214162 -2.6148030122 6.0778449411
Zn 3.6546838818 2.6144413079 6.0773833421
Zn 3.6559051288 -3.9216391182 8.4674629432
Zn 3.6558928861 1.3071103688 8.4652918242
Zn 3.6548706290 2.6143598370 1.5094013850
Zn 3.6548706290 7.8430795480 1.5094013850
Zn 3.6548706290 1.3071799000 3.7735034500
Zn 3.6548706290 6.5358996110 3.7735034500
Zn 3.6546903864 0.0001821048 6.0775847249
Zn 3.6547330779 5.2285853106 6.0776065111
Zn 3.6558728341 -1.3077141968 8.4679026767
Zn 3.6559453182 3.9218592569 8.4675457622
Zn 8.5280314680 -0.0000000190 1.5094013850
Zn 8.5280314680 5.2287196920 1.5094013850
Zn 8.5280314680 -1.3071799560 3.7735034500
Zn 8.5280314680 3.9215397550 3.7735034500
Zn 8.5281854922 -2.6146651272 6.0780749165
Zn 8.5282145659 2.6144934230 6.0774406064
Zn 8.5270355254 -3.9215367449 8.4684029277
Zn 8.5269439781 1.3069670771 8.4686388785
Zn 8.5280314680 2.6143598370 1.5094013850
Zn 8.5280314680 7.8430795480 1.5094013850
Zn 8.5280314680 1.3071799000 3.7735034500
Zn 8.5280314680 6.5358996110 3.7735034500
Zn 8.5282431371 -0.0000671123 6.0776636779
Zn 8.5282093997 5.2286503789 6.0778084421
Zn 8.5270961721 -1.3077633514 8.4686659624
Zn 8.5269296369 3.9219434246 8.4683635664
C 3.8726732573 1.0535920373 17.5724403117
C 3.8301287833 1.1082529823 16.1791838519
C 5.0172078769 1.2172113543 15.4224438185
C 2.6000329338 1.0551672835 15.4874808157
C 2.5589347881 1.1088084816 14.1052952099
C 4.9778137533 1.2711130117 14.0401900725
C 3.7468983110 1.2169597653 13.3455613147
N 3.9082167953 1.0063709567 18.7940849434
N 3.7060240619 1.2705676185 11.9892579895
H 2.8223117806 1.2311309297 11.4814655571
H 4.5584132278 1.3484449383 11.4343255290
H 5.9785321957 1.2602693414 15.9415896075
H 1.6718809105 0.9690930716 16.0583355222
H 1.5933738145 1.0645462807 13.5890592095
H 5.9103029862 1.3564018862 13.4720119965
