63
Frame from Quantum Espresso Output
Zn -1.0735560000 1.0841420000 1.1977640000
Zn -2.3094850000 6.1646920000 1.1977640000
Zn -4.2938437918 0.2952940493 4.2644815509
Zn -5.5418504135 5.3838569745 4.2704950369
Zn -8.2633170128 -0.6913835466 5.8160869868
Zn -9.5748956816 4.3758457133 5.7569321040
Zn -1.6915200000 3.6244170000 1.1977640000
Zn -2.9274500000 8.7049670000 1.1977640000
Zn -4.9150821932 2.8414123220 4.2449728974
Zn -6.1561487193 7.9145064306 4.3124583248
Zn -8.9228799392 1.8423230235 5.7591031379
Zn -10.1140996252 6.9263879284 5.8616166594
Zn 4.4565960000 1.0841420000 1.1977640000
Zn 3.2206660000 6.1646920000 1.1977640000
Zn 0.3905757834 0.0978405331 3.4817845251
Zn -0.8382499362 5.1785490846 3.4860931921
Zn -2.1606429862 -0.5228896116 5.6031324499
Zn -3.4223601316 4.5689963353 5.6012251190
Zn 3.8386310000 3.6244170000 1.1977640000
Zn 2.6027020000 8.7049670000 1.1977640000
Zn -0.1830251087 2.6446477240 3.4728221537
Zn -1.4629714270 7.7109350328 3.4837148300
Zn -2.9471898656 1.9866993029 5.8487185661
Zn -3.9974440518 7.1023667497 5.6286041107
Zn 1.6915200000 0.4114910000 0.8555450000
Zn 0.4555910000 5.4920410000 0.8555450000
Zn -2.2531350672 -0.5460164948 2.8514858318
Zn -3.4789156218 4.5324596268 2.8531055641
Zn -6.1253106822 -1.5010140104 4.4729189682
Zn -7.3570361831 3.5888112813 4.4558105508
Zn 1.0735560000 2.9517660000 0.8555450000
Zn -0.1623740000 8.0323160000 0.8555450000
Zn -2.8000163186 2.0100699739 2.9522588764
Zn -4.1043692893 7.0776976733 2.8629597812
Zn -6.7291418186 1.0493787611 4.4537711046
Zn -7.9901600263 6.1182070414 4.4645621654
Zn 7.2216720000 0.4114910000 0.8555450000
Zn 5.9857420000 5.4920410000 0.8555450000
Zn 2.9793615277 -0.6251236062 2.9338722494
Zn 1.7656937050 4.4634953207 2.8915756891
Zn 0.3271100517 -1.2408048337 5.8285356952
Zn -1.0046633994 3.7800984513 5.7997975404
Zn 6.6037070000 2.9517660000 0.8555450000
Zn 5.3677780000 8.0323160000 0.8555450000
Zn 2.3834366675 1.9175646327 2.9103688669
Zn 1.1236289025 7.0005626826 2.9269549241
Zn -0.3716395783 1.2978153192 5.8164066713
Zn -1.5263305069 6.3555696021 5.8394759535
C -8.7014927187 4.8368654318 8.9500808775
C -7.5469393093 4.0269965195 8.7491407139
C -7.6680647974 2.6335241648 8.5888771857
C -6.2723480478 4.6173563822 8.6731230014
C -6.5405808312 1.8536918702 8.3524689549
C -5.1489912755 3.8356085826 8.4458554238
C -5.2692671300 2.4448196079 8.2850164704
N -9.6518364073 5.5031855481 9.0836414583
N -4.1234568677 1.6756156818 8.0003207331
H -3.3020241533 1.9229131763 8.5510906886
H -4.2792007385 0.6700420388 8.0262068994
H -6.1749750787 5.6957700958 8.7801755583
H -8.6491889489 2.1644647050 8.6569059209
H -4.1645647719 4.3038616060 8.3904437981
H -6.6490746593 0.7757531897 8.2202589855
63
Frame from Quantum Espresso Output
Zn -1.0735560000 1.0841420000 1.1977640000
Zn -2.3094850000 6.1646920000 1.1977640000
Zn -4.2943657008 0.2953464471 4.2647501586
Zn -5.5424576808 5.3836562937 4.2711198048
Zn -8.2621022487 -0.6911641242 5.8159871968
Zn -9.5741662198 4.3758421399 5.7565184101
Zn -1.6915200000 3.6244170000 1.1977640000
Zn -2.9274500000 8.7049670000 1.1977640000
Zn -4.9155293652 2.8412956520 4.2454997936
Zn -6.1562816736 7.9143228349 4.3120198679
Zn -8.9230789928 1.8421519314 5.7588372981
Zn -10.1131272866 6.9270773724 5.8620752741
Zn 4.4565960000 1.0841420000 1.1977640000
Zn 3.2206660000 6.1646920000 1.1977640000
Zn 0.3908279503 0.0977466587 3.4815959250
Zn -0.8378270691 5.1781187774 3.4857019048
Zn -2.1609891119 -0.5232214652 5.6044153555
Zn -3.4225801607 4.5691169005 5.6018560398
Zn 3.8386310000 3.6244170000 1.1977640000
Zn 2.6027020000 8.7049670000 1.1977640000
Zn -0.1829307404 2.6449738398 3.4724880610
Zn -1.4628279169 7.7116478603 3.4833410170
Zn -2.9465825313 1.9868619738 5.8485639604
Zn -3.9983655504 7.1025222728 5.6293528169
Zn 1.6915200000 0.4114910000 0.8555450000
Zn 0.4555910000 5.4920410000 0.8555450000
Zn -2.2535034830 -0.5460352843 2.8519536763
Zn -3.4796974373 4.5326975298 2.8531589098
Zn -6.1252592504 -1.5006706374 4.4732594461
Zn -7.3576005956 3.5886718508 4.4562777417
Zn 1.0735560000 2.9517660000 0.8555450000
Zn -0.1623740000 8.0323160000 0.8555450000
Zn -2.8006187750 2.0096932010 2.9523271401
Zn -4.1046893171 7.0776075120 2.8631029519
Zn -6.7297799375 1.0490312892 4.4539897613
Zn -7.9898840136 6.1181712202 4.4650426781
Zn 7.2216720000 0.4114910000 0.8555450000
Zn 5.9857420000 5.4920410000 0.8555450000
Zn 2.9789588201 -0.6254162715 2.9335406393
Zn 1.7657717177 4.4640160507 2.8917350310
Zn 0.3269650701 -1.2410200740 5.8282222602
Zn -1.0044374905 3.7803207548 5.7996478246
Zn 6.6037070000 2.9517660000 0.8555450000
Zn 5.3677780000 8.0323160000 0.8555450000
Zn 2.3831544625 1.9173666546 2.9095627909
Zn 1.1236629926 7.0005468543 2.9271076428
Zn -0.3713599849 1.2978637100 5.8158498329
Zn -1.5262350237 6.3554665758 5.8390100549
C -8.7018897241 4.8362982528 8.9504222826
C -7.5464594948 4.0264681577 8.7488306880
C -7.6674377037 2.6321562192 8.5892483137
C -6.2718738002 4.6181539900 8.6723001949
C -6.5393856380 1.8534494449 8.3520448278
C -5.1480384619 3.8359157498 8.4463313240
C -5.2683165702 2.4446523493 8.2854306091
N -9.6518292626 5.5039221991 9.0839572325
N -4.1229578968 1.6753975839 8.0003028475
H -3.3023909628 1.9235171136 8.5510622935
H -4.2791013532 0.6695861152 8.0261469738
H -6.1741543147 5.6973550928 8.7802614920
H -8.6498852653 2.1642056097 8.6566650895
H -4.1638283467 4.3042205455 8.3899408078
H -6.6494305438 0.7756548678 8.2199738678
63
Frame from Quantum Espresso Output
Zn -1.0735560000 1.0841420000 1.1977640000
Zn -2.3094850000 6.1646920000 1.1977640000
Zn -4.2949268826 0.2953456857 4.2652288029
Zn -5.5431490537 5.3835620683 4.2721946588
Zn -8.2599119993 -0.6909296623 5.8159421618
Zn -9.5730672248 4.3760062916 5.7557801800
Zn -1.6915200000 3.6244170000 1.1977640000
Zn -2.9274500000 8.7049670000 1.1977640000
Zn -4.9159425015 2.8410544932 4.2465144406
Zn -6.1561381068 7.9142366773 4.3109524394
Zn -8.9236504044 1.8414428630 5.7583873323
Zn -10.1114586809 6.9286266031 5.8630907542
Zn 4.4565960000 1.0841420000 1.1977640000
Zn 3.2206660000 6.1646920000 1.1977640000
Zn 0.3907962584 0.0972689693 3.4814400100
Zn -0.8374320318 5.1774427059 3.4850690378
Zn -2.1616927076 -0.5239171612 5.6068296321
Zn -3.4229463181 4.5694371995 5.6030375985
Zn 3.8386310000 3.6244170000 1.1977640000
Zn 2.6027020000 8.7049670000 1.1977640000
Zn -0.1832523258 2.6454037813 3.4719517713
Zn -1.4629582696 7.7129383776 3.4828257136
Zn -2.9453272327 1.9870214564 5.8482283217
Zn -4.0000786498 7.1029998786 5.6306948278
Zn 1.6915200000 0.4114910000 0.8555450000
Zn 0.4555910000 5.4920410000 0.8555450000
Zn -2.2542999448 -0.5462302727 2.8529749976
Zn -3.4812580509 4.5332581141 2.8533140147
Zn -6.1248171629 -1.4999704790 4.4738673000
Zn -7.3583248599 3.5884296166 4.4571173041
Zn 1.0735560000 2.9517660000 0.8555450000
Zn -0.1623740000 8.0323160000 0.8555450000
Zn -2.8018796662 2.0087775496 2.9525169266
Zn -4.1053861574 7.0776073382 2.8634674259
Zn -6.7306331479 1.0482267696 4.4544660882
Zn -7.9890988688 6.1185233661 4.4658317051
Zn 7.2216720000 0.4114910000 0.8555450000
Zn 5.9857420000 5.4920410000 0.8555450000
Zn 2.9782624802 -0.6262003845 2.9329775396
Zn 1.7659500047 4.4652363242 2.8919430687
Zn 0.3264450131 -1.2415920012 5.8275030109
Zn -1.0043527253 3.7807785311 5.7993524090
Zn 6.6037070000 2.9517660000 0.8555450000
Zn 5.3677780000 8.0323160000 0.8555450000
Zn 2.3826450292 1.9168961072 2.9079932922
Zn 1.1237985596 7.0006684627 2.9274314955
Zn -0.3711916058 1.2976283897 5.8146989242
Zn -1.5262953925 6.3554198883 5.8379940747
C -8.7027880629 4.8354106609 8.9509948004
C -7.5458123978 4.0257723880 8.7483250787
C -7.6664060530 2.6308223252 8.5898701571
C -6.2710931045 4.6194152187 8.6709569386
C -6.5377741120 1.8529324886 8.3515320775
C -5.1465870197 3.8366726526 8.4470671808
C -5.2669542841 2.4446407966 8.2860580554
N -9.6505822390 5.5044974129 9.0844458089
N -4.1218693885 1.6749232039 8.0001644473
H -3.3025986224 1.9245968048 8.5511180308
H -4.2787499035 0.6688618936 8.0260658424
H -6.1726494571 5.6995714987 8.7801733491
H -8.6503735139 2.1637406410 8.6561208035
H -4.1621906018 4.3049706613 8.3889645718
H -6.6497324341 0.7752222080 8.2192333917
63
Frame from Quantum Espresso Output
Zn -1.0735560000 1.0841420000 1.1977640000
Zn -2.3094850000 6.1646920000 1.1977640000
Zn -4.2965197061 0.2954023893 4.2667859343
Zn -5.5450325586 5.3832064782 4.2755225843
Zn -8.2535182760 -0.6901514486 5.8159518027
Zn -9.5697603111 4.3765180288 5.7535084261
Zn -1.6915200000 3.6244170000 1.1977640000
Zn -2.9274500000 8.7049670000 1.1977640000
Zn -4.9172792490 2.8404914862 4.2497111445
Zn -6.1555520748 7.9139516635 4.3076079003
Zn -8.9253914766 1.8392291340 5.7569168216
Zn -10.1064420457 6.9332673608 5.8663188217
Zn 4.4565960000 1.0841420000 1.1977640000
Zn 3.2206660000 6.1646920000 1.1977640000
Zn 0.3905341687 0.0958868744 3.4808984811
Zn -0.8365157276 5.1755860085 3.4830863105
Zn -2.1639154784 -0.5260854763 5.6142472521
Zn -3.4242518062 4.5705142769 5.6065336038
Zn 3.8386310000 3.6244170000 1.1977640000
Zn 2.6027020000 8.7049670000 1.1977640000
Zn -0.1842703042 2.6465344682 3.4702586528
Zn -1.4635934299 7.7166317968 3.4811897100
Zn -2.9415323169 1.9875274297 5.8471854687
Zn -4.0053521354 7.1042794361 5.6347783751
Zn 1.6915200000 0.4114910000 0.8555450000
Zn 0.4555910000 5.4920410000 0.8555450000
Zn -2.2565413321 -0.5469310372 2.8560594801
Zn -3.4861013021 4.5349764480 2.8538442735
Zn -6.1233136309 -1.4979219735 4.4756671371
Zn -7.3604318656 3.5875268884 4.4596723540
Zn 1.0735560000 2.9517660000 0.8555450000
Zn -0.1623740000 8.0323160000 0.8555450000
Zn -2.8057984018 2.0061547312 2.9530225681
Zn -4.1074236698 7.0775657734 2.8645922994
Zn -6.7332983642 1.0461039128 4.4558916804
Zn -7.9865930038 6.1196019957 4.4682755926
Zn 7.2216720000 0.4114910000 0.8555450000
Zn 5.9857420000 5.4920410000 0.8555450000
Zn 2.9760911591 -0.6284893779 2.9312808841
Zn 1.7666767940 4.4687726789 2.8925989570
Zn 0.3250059364 -1.2433555596 5.8251631351
Zn -1.0040438918 3.7822291410 5.7983432466
Zn 6.6037070000 2.9517660000 0.8555450000
Zn 5.3677780000 8.0323160000 0.8555450000
Zn 2.3811889585 1.9155983535 2.9033267397
Zn 1.1241945910 7.0010631495 2.9284897617
Zn -0.3707121641 1.2968207200 5.8110152134
Zn -1.5265329664 6.3553769290 5.8346421742
C -8.7007186070 4.8298209369 8.9518931342
C -7.5442317108 4.0246475450 8.7470782538
C -7.6637061554 2.6281953131 8.5914539290
C -6.2690297367 4.6229395446 8.6675271234
C -6.5339447382 1.8513925139 8.3505365629
C -5.1427300845 3.8385783860 8.4487825673
C -5.2630797868 2.4450829388 8.2876047125
N -9.6495695602 5.5081215413 9.0864773861
N -4.1193463960 1.6735491565 7.9995110199
H -3.3021120328 1.9276444054 8.5516978328
H -4.2772704669 0.6672567569 8.0259785658
H -6.1683740491 5.7047399382 8.7794636423
H -8.6503261395 2.1625232607 8.6544182991
H -4.1572636303 4.3072132680 8.3861158085
H -6.6499833267 0.7738785785 8.2167760559
63
Frame from Quantum Espresso Output
Zn -1.0735560000 1.0841420000 1.1977640000
Zn -2.3094850000 6.1646920000 1.1977640000
Zn -4.2956138606 0.2953701417 4.2659003870
Zn -5.5439614012 5.3834087038 4.2736299787
Zn -8.2571544140 -0.6905940220 5.8159463199
Zn -9.5716409671 4.3762270017 5.7548003823
Zn -1.6915200000 3.6244170000 1.1977640000
Zn -2.9274500000 8.7049670000 1.1977640000
Zn -4.9165190349 2.8408116707 4.2478931652
Zn -6.1558853537 7.9141137521 4.3095099541
Zn -8.9244013213 1.8404880912 5.7577531074
Zn -10.1092950277 6.9306281419 5.8644830058
Zn 4.4565960000 1.0841420000 1.1977640000
Zn 3.2206660000 6.1646920000 1.1977640000
Zn 0.3906832203 0.0966728777 3.4812064510
Zn -0.8370368338 5.1766419203 3.4842138960
Zn -2.1626513791 -0.5248523462 5.6100288196
Zn -3.4235093695 4.5699017383 5.6045454105
Zn 3.8386310000 3.6244170000 1.1977640000
Zn 2.6027020000 8.7049670000 1.1977640000
Zn -0.1836913755 2.6458914417 3.4712215366
Zn -1.4632322115 7.7145313334 3.4821201123
Zn -2.9436905018 1.9872396805 5.8477785437
Zn -4.0023530814 7.1035517462 5.6324560442
Zn 1.6915200000 0.4114910000 0.8555450000
Zn 0.4555910000 5.4920410000 0.8555450000
Zn -2.2552666455 -0.5465325094 2.8543053216
Zn -3.4833469243 4.5339992241 2.8535427130
Zn -6.1241686960 -1.4990869674 4.4746435620
Zn -7.3592336024 3.5880402738 4.4582192861
Zn 1.0735560000 2.9517660000 0.8555450000
Zn -0.1623740000 8.0323160000 0.8555450000
Zn -2.8035698000 2.0076463394 2.9527350076
Zn -4.1062649277 7.0775894115 2.8639525790
Zn -6.7317826442 1.0473111906 4.4550809400
Zn -7.9880181000 6.1189885744 4.4668857432
Zn 7.2216720000 0.4114910000 0.8555450000
Zn 5.9857420000 5.4920410000 0.8555450000
Zn 2.9773259987 -0.6271876175 2.9322457794
Zn 1.7662634658 4.4667615387 2.8922259505
Zn 0.3258243455 -1.2423526163 5.8264938326
Zn -1.0042195268 3.7814041729 5.7989171616
Zn 6.6037070000 2.9517660000 0.8555450000
Zn 5.3677780000 8.0323160000 0.8555450000
Zn 2.3820170322 1.9163363917 2.9059806282
Zn 1.1239693662 7.0008386894 2.9278879212
Zn -0.3709848247 1.2972800452 5.8131101556
Zn -1.5263978571 6.3554013601 5.8365484144
C -8.7018955155 4.8329998370 8.9513822479
C -7.5451306543 4.0252872481 8.7477873285
C -7.6652415988 2.6296893062 8.5905532311
C -6.2702031828 4.6209352453 8.6694776741
C -6.5361225196 1.8522683042 8.3511027164
C -5.1449235402 3.8374945872 8.4478070196
C -5.2652832301 2.4448314906 8.2867251220
N -9.6501454750 5.5060604839 9.0853220194
N -4.1207812327 1.6743305832 7.9998826268
H -3.3023887584 1.9259112218 8.5513680969
H -4.2781118289 0.6681696050 8.0260282004
H -6.1708054920 5.7018006244 8.7798672557
H -8.6503530815 2.1632155901 8.6553865207
H -4.1600656202 4.3059378879 8.3877359125
H -6.6498406430 0.7746427064 8.2181735534
63
Frame from Quantum Espresso Output
Zn -1.0735560000 1.0841420000 1.1977640000
Zn -2.3094850000 6.1646920000 1.1977640000
Zn -4.2964791732 0.2955353024 4.2670314546
Zn -5.5449440426 5.3830221361 4.2758607942
Zn -8.2536106669 -0.6900780969 5.8161626724
Zn -9.5696856736 4.3765711689 5.7534891101
Zn -1.6915200000 3.6244170000 1.1977640000
Zn -2.9274500000 8.7049670000 1.1977640000
Zn -4.9173900752 2.8405881346 4.2500052648
Zn -6.1555237232 7.9139587955 4.3075244807
Zn -8.9254659689 1.8392268998 5.7568338190
Zn -10.1062992708 6.9332207502 5.8666267562
Zn 4.4565960000 1.0841420000 1.1977640000
Zn 3.2206660000 6.1646920000 1.1977640000
Zn 0.3903702608 0.0960568860 3.4807087800
Zn -0.8367443226 5.1757069345 3.4828489231
Zn -2.1641561614 -0.5261172219 5.6146623426
Zn -3.4244460825 4.5705985981 5.6066436467
Zn 3.8386310000 3.6244170000 1.1977640000
Zn 2.6027020000 8.7049670000 1.1977640000
Zn -0.1843696758 2.6464549766 3.4700354119
Zn -1.4637337359 7.7163761143 3.4809658583
Zn -2.9413968873 1.9876258196 5.8470724143
Zn -4.0056085050 7.1040414742 5.6350911797
Zn 1.6915200000 0.4114910000 0.8555450000
Zn 0.4555910000 5.4920410000 0.8555450000
Zn -2.2564028002 -0.5468995037 2.8561363662
Zn -3.4861977559 4.5348858964 2.8538904206
Zn -6.1231054070 -1.4979810268 4.4757055903
Zn -7.3604683238 3.5873116835 4.4598391638
Zn 1.0735560000 2.9517660000 0.8555450000
Zn -0.1623740000 8.0323160000 0.8555450000
Zn -2.8059608101 2.0063620350 2.9529257288
Zn -4.1073037583 7.0774754459 2.8646101486
Zn -6.7334504757 1.0463931226 4.4558852200
Zn -7.9864969976 6.1196222651 4.4685518655
Zn 7.2216720000 0.4114910000 0.8555450000
Zn 5.9857420000 5.4920410000 0.8555450000
Zn 2.9759931295 -0.6284637816 2.9312043822
Zn 1.7667833284 4.4686605971 2.8925876453
Zn 0.3252062850 -1.2434115080 5.8250190995
Zn -1.0039102644 3.7823120267 5.7982207255
Zn 6.6037070000 2.9517660000 0.8555450000
Zn 5.3677780000 8.0323160000 0.8555450000
Zn 2.3811880141 1.9157496760 2.9032495732
Zn 1.1241251866 7.0010463970 2.9285860516
Zn -0.3707893606 1.2968066529 5.8107386287
Zn -1.5264981274 6.3554170504 5.8342776634
C -8.7024022089 4.8315603644 8.9520586645
C -7.5434481274 4.0250225750 8.7471947806
C -7.6636901775 2.6289165444 8.5910611149
C -6.2690619643 4.6224397463 8.6680714597
C -6.5346769806 1.8518204713 8.3510750314
C -5.1429439533 3.8384641617 8.4482803548
C -5.2634901081 2.4450656704 8.2872546962
N -9.6470024774 5.5062951808 9.0863342839
N -4.1196110572 1.6741441667 7.9996486746
H -3.3013986312 1.9273119933 8.5518016718
H -4.2768653943 0.6676372439 8.0261718422
H -6.1685664100 5.7035227237 8.7790193148
H -8.6489837227 2.1626910391 8.6543725257
H -4.1574762646 4.3071115913 8.3861968629
H -6.6493425734 0.7738971492 8.2165394662
63
Frame from Quantum Espresso Output
Zn -1.0735560000 1.0841420000 1.1977640000
Zn -2.3094850000 6.1646920000 1.1977640000
Zn -4.2969424173 0.2956549201 4.2680002408
Zn -5.5454248987 5.3826905011 4.2775557247
Zn -8.2516927285 -0.6898695254 5.8165758447
Zn -9.5686569603 4.3770496716 5.7527158647
Zn -1.6915200000 3.6244170000 1.1977640000
Zn -2.9274500000 8.7049670000 1.1977640000
Zn -4.9180034369 2.8404328770 4.2516290476
Zn -6.1553891255 7.9140506132 4.3061290611
Zn -8.9262742355 1.8382466335 5.7561632814
Zn -10.1044361205 6.9348156576 5.8682915599
Zn 4.4565960000 1.0841420000 1.1977640000
Zn 3.2206660000 6.1646920000 1.1977640000
Zn 0.3899396781 0.0958290697 3.4803277300
Zn -0.8367851672 5.1755053269 3.4818707340
Zn -2.1654136980 -0.5269230514 5.6180103554
Zn -3.4251182756 4.5711418904 5.6080691010
Zn 3.8386310000 3.6244170000 1.1977640000
Zn 2.6027020000 8.7049670000 1.1977640000
Zn -0.1849472848 2.6466435964 3.4691362322
Zn -1.4640772233 7.7171173048 3.4801807859
Zn -2.9398510873 1.9878316601 5.8465613927
Zn -4.0077767478 7.1041812990 5.6371443460
Zn 1.6915200000 0.4114910000 0.8555450000
Zn 0.4555910000 5.4920410000 0.8555450000
Zn -2.2570563684 -0.5471198713 2.8573574583
Zn -3.4880563677 4.5352497735 2.8541531658
Zn -6.1222647412 -1.4974643556 4.4762543811
Zn -7.3612542930 3.5866004162 4.4608926661
Zn 1.0735560000 2.9517660000 0.8555450000
Zn -0.1623740000 8.0323160000 0.8555450000
Zn -2.8077093392 2.0057226474 2.9529191694
Zn -4.1078958459 7.0774148003 2.8650564442
Zn -6.7345549976 1.0460036784 4.4562846274
Zn -7.9856546834 6.1202936840 4.4697311727
Zn 7.2216720000 0.4114910000 0.8555450000
Zn 5.9857420000 5.4920410000 0.8555450000
Zn 2.9753208044 -0.6293106944 2.9306170737
Zn 1.7673253050 4.4698293875 2.8927353394
Zn 0.3251770683 -1.2441605122 5.8239375212
Zn -1.0035523883 3.7830559994 5.7976574977
Zn 6.6037070000 2.9517660000 0.8555450000
Zn 5.3677780000 8.0323160000 0.8555450000
Zn 2.3808544603 1.9155656062 2.9015601947
Zn 1.1243030540 7.0012830166 2.9292025947
Zn -0.3708617381 1.2963451065 5.8089656404
Zn -1.5263728090 6.3556396937 5.8324109199
C -8.7013418110 4.8308589800 8.9521721637
C -7.5423163421 4.0252051411 8.7470764172
C -7.6622712208 2.6298213982 8.5908233857
C -6.2678585721 4.6223072374 8.6678484377
C -6.5340439374 1.8517832257 8.3514963433
C -5.1420329295 3.8388689950 8.4478091550
C -5.2633764961 2.4454076982 8.2872133899
N -9.6447203202 5.5060781123 9.0871936036
N -4.1182199666 1.6747528108 8.0001751582
H -3.3005447716 1.9275344983 8.5516716009
H -4.2755846654 0.6679893051 8.0264908750
H -6.1674840480 5.7032962998 8.7779098961
H -8.6468974375 2.1624774574 8.6537301742
H -4.1564388734 4.3075676292 8.3853747124
H -6.6481786590 0.7738458332 8.2152960669
63
Frame from Quantum Espresso Output
Zn -1.0735560000 1.0841420000 1.1977640000
Zn -2.3094850000 6.1646920000 1.1977640000
Zn -4.2972721366 0.2959049122 4.2691885068
Zn -5.5457693860 5.3822410469 4.2794885082
Zn -8.2499640829 -0.6897003151 5.8172353422
Zn -9.5677856135 4.3776464303 5.7519878432
Zn -1.6915200000 3.6244170000 1.1977640000
Zn -2.9274500000 8.7049670000 1.1977640000
Zn -4.9185602812 2.8402715802 4.2534890220
Zn -6.1552221150 7.9142845716 4.3046587704
Zn -8.9272400076 1.8371890531 5.7554400452
Zn -10.1025874996 6.9363543814 5.8702642911
Zn 4.4565960000 1.0841420000 1.1977640000
Zn 3.2206660000 6.1646920000 1.1977640000
Zn 0.3892693466 0.0957812288 3.4798371791
Zn -0.8370551762 5.1753998741 3.4807537825
Zn -2.1668778488 -0.5276822245 5.6216903359
Zn -3.4257959628 4.5716730865 5.6095929194
Zn 3.8386310000 3.6244170000 1.1977640000
Zn 2.6027020000 8.7049670000 1.1977640000
Zn -0.1857270288 2.6467485002 3.4680693632
Zn -1.4645325771 7.7175666717 3.4793027389
Zn -2.9382066466 1.9880897452 5.8459667612
Zn -4.0100364981 7.1041873697 5.6395221382
Zn 1.6915200000 0.4114910000 0.8555450000
Zn 0.4555910000 5.4920410000 0.8555450000
Zn -2.2576119928 -0.5472097223 2.8586393976
Zn -3.4899064304 4.5354083475 2.8544130060
Zn -6.1212708689 -1.4969816567 4.4767925073
Zn -7.3620212202 3.5857246013 4.4619982079
Zn 1.0735560000 2.9517660000 0.8555450000
Zn -0.1623740000 8.0323160000 0.8555450000
Zn -2.8095804131 2.0052527679 2.9527930614
Zn -4.1083996531 7.0773113013 2.8655087126
Zn -6.7356443669 1.0457784332 4.4566198446
Zn -7.9848221944 6.1210613525 4.4710772506
Zn 7.2216720000 0.4114910000 0.8555450000
Zn 5.9857420000 5.4920410000 0.8555450000
Zn 2.9746919598 -0.6300978840 2.9300776363
Zn 1.7679471957 4.4708841929 2.8928159341
Zn 0.3253021328 -1.2449409755 5.8227525788
Zn -1.0031415873 3.7838586950 5.7969619297
Zn 6.6037070000 2.9517660000 0.8555450000
Zn 5.3677780000 8.0323160000 0.8555450000
Zn 2.3805684586 1.9155381325 2.8998435645
Zn 1.1244718872 7.0015078332 2.9299426329
Zn -0.3711469992 1.2958297643 5.8069530045
Zn -1.5261650128 6.3559228271 5.8302396116
C -8.6995635170 4.8303994477 8.9521971024
C -7.5407577254 4.0256425362 8.7470643788
C -7.6608707690 2.6307152672 8.5903360414
C -6.2666908722 4.6219909987 8.6679194288
C -6.5332698156 1.8520264528 8.3519584954
C -5.1410563862 3.8391127211 8.4469684713
C -5.2628281256 2.4454933710 8.2869799391
N -9.6424108989 5.5058088244 9.0882338793
N -4.1174940467 1.6755240493 8.0006214391
H -3.2989822938 1.9277148426 8.5517997079
H -4.2739533940 0.6687992463 8.0269385191
H -6.1664710362 5.7025395191 8.7765202409
H -8.6442144231 2.1624184317 8.6530739725
H -4.1556859526 4.3078336323 8.3845850035
H -6.6466097622 0.7739995926 8.2139741646
63
Frame from Quantum Espresso Output
Zn -1.0735560000 1.0841420000 1.1977640000
Zn -2.3094850000 6.1646920000 1.1977640000
Zn -4.2977213584 0.2963583249 4.2710952770
Zn -5.5462630040 5.3814915945 4.2824338223
Zn -8.2477506030 -0.6894992715 5.8183951111
Zn -9.5667090194 4.3786122727 5.7510015585
Zn -1.6915200000 3.6244170000 1.1977640000
Zn -2.9274500000 8.7049670000 1.1977640000
Zn -4.9194258164 2.8400283950 4.2563689517
Zn -6.1550566890 7.9146961391 4.3025405436
Zn -8.9286993431 1.8356911460 5.7543303948
Zn -10.1000041029 6.9383941382 5.8732996519
Zn 4.4565960000 1.0841420000 1.1977640000
Zn 3.2206660000 6.1646920000 1.1977640000
Zn 0.3882160922 0.0959038664 3.4790389089
Zn -0.8375450133 5.1754066503 3.4790548925
Zn -2.1691604677 -0.5287529222 5.6271888374
Zn -3.4267688193 4.5723868417 5.6118404785
Zn 3.8386310000 3.6244170000 1.1977640000
Zn 2.6027020000 8.7049670000 1.1977640000
Zn -0.1868831472 2.6468592261 3.4664253120
Zn -1.4651742751 7.7179027862 3.4779678181
Zn -2.9358909289 1.9885127946 5.8451061745
Zn -4.0132866835 7.1040565743 5.6432122824
Zn 1.6915200000 0.4114910000 0.8555450000
Zn 0.4555910000 5.4920410000 0.8555450000
Zn -2.2583179370 -0.5472266857 2.8604662717
Zn -3.4925364890 4.5354037140 2.8547681940
Zn -6.1198337436 -1.4963577324 4.4774565609
Zn -7.3631139023 3.5843863521 4.4635669028
Zn 1.0735560000 2.9517660000 0.8555450000
Zn -0.1623740000 8.0323160000 0.8555450000
Zn -2.8123931656 2.0047678741 2.9524653128
Zn -4.1090808054 7.0771029172 2.8661632742
Zn -6.7371700589 1.0456230655 4.4569716998
Zn -7.9837363874 6.1221627916 4.4730725717
Zn 7.2216720000 0.4114910000 0.8555450000
Zn 5.9857420000 5.4920410000 0.8555450000
Zn 2.9739778915 -0.6310781219 2.9294414418
Zn 1.7690149130 4.4722506894 2.8928829633
Zn 0.3256711346 -1.2460255588 5.8209901416
Zn -1.0024234070 3.7850608644 5.7958473413
Zn 6.6037070000 2.9517660000 0.8555450000
Zn 5.3677780000 8.0323160000 0.8555450000
Zn 2.3803491652 1.9157024532 2.8975141058
Zn 1.1248001379 7.0018140487 2.9311185492
Zn -0.3717191999 1.2950567837 5.8039148898
Zn -1.5257230703 6.3564137535 5.8268912022
C -8.6964764428 4.8302383790 8.9522534573
C -7.5385200859 4.0259243079 8.7470988329
C -7.6584536975 2.6319081707 8.5894977758
C -6.2645798971 4.6214956882 8.6680180166
C -6.5318122210 1.8522738977 8.3522936268
C -5.1398737836 3.8389174778 8.4455679975
C -5.2615571122 2.4460631860 8.2866976548
N -9.6393192248 5.5054939625 9.0898785658
N -4.1158065144 1.6766702843 8.0015201838
H -3.2968154703 1.9279368950 8.5517693576
H -4.2714641415 0.6700580411 8.0276314904
H -6.1650286472 5.7014585787 8.7744025740
H -8.6405449018 2.1623504152 8.6521578435
H -4.1546357008 4.3081207968 8.3834428980
H -6.6440954712 0.7746018536 8.2121448124
63
Frame from Quantum Espresso Output
Zn -1.0735560000 1.0841420000 1.1977640000
Zn -2.3094850000 6.1646920000 1.1977640000
Zn -4.2979256060 0.2972585787 4.2742452930
Zn -5.5465436234 5.3803459307 4.2869758796
Zn -8.2454521186 -0.6894262541 5.8206486418
Zn -9.5658191160 4.3802822551 5.7498503718
Zn -1.6915200000 3.6244170000 1.1977640000
Zn -2.9274500000 8.7049670000 1.1977640000
Zn -4.9204244463 2.8397472649 4.2609151075
Zn -6.1546108222 7.9155739958 4.2994675167
Zn -8.9311481444 1.8334886973 5.7526665734
Zn -10.0966998298 6.9408997607 5.8782195580
Zn 4.4565960000 1.0841420000 1.1977640000
Zn 3.2206660000 6.1646920000 1.1977640000
Zn 0.3861288400 0.0963651109 3.4777302899
Zn -0.8388892255 5.1757831220 3.4764682315
Zn -2.1727096203 -0.5302774222 5.6353489594
Zn -3.4280177511 4.5733598966 5.6150412814
Zn 3.8386310000 3.6244170000 1.1977640000
Zn 2.6027020000 8.7049670000 1.1977640000
Zn -0.1890146997 2.6467889054 3.4638427089
Zn -1.4664382674 7.7175752722 3.4759835054
Zn -2.9326510059 1.9892283687 5.8437708789
Zn -4.0177713698 7.1036031171 5.6489868303
Zn 1.6915200000 0.4114910000 0.8555450000
Zn 0.4555910000 5.4920410000 0.8555450000
Zn -2.2589835194 -0.5469816729 2.8630567746
Zn -3.4961378621 4.5348792968 2.8552458015
Zn -6.1176279993 -1.4956005832 4.4781617895
Zn -7.3644317059 3.5823677625 4.4657631968
Zn 1.0735560000 2.9517660000 0.8555450000
Zn -0.1623740000 8.0323160000 0.8555450000
Zn -2.8166386668 2.0045150818 2.9515859170
Zn -4.1098534189 7.0767145802 2.8671800764
Zn -6.7390381248 1.0457716681 4.4571714269
Zn -7.9823067781 6.1238335077 4.4760920660
Zn 7.2216720000 0.4114910000 0.8555450000
Zn 5.9857420000 5.4920410000 0.8555450000
Zn 2.9733529239 -0.6321349440 2.9289546887
Zn 1.7708799278 4.4738313283 2.8928642568
Zn 0.3264104936 -1.2475601470 5.8182340552
Zn -1.0013328662 3.7868718906 5.7939014922
Zn 6.6037070000 2.9517660000 0.8555450000
Zn 5.3677780000 8.0323160000 0.8555450000
Zn 2.3804551052 1.9163463555 2.8945577300
Zn 1.1253873863 7.0022514433 2.9331197728
Zn -0.3731453987 1.2937354793 5.7991603435
Zn -1.5249803713 6.3573483654 5.8214960711
C -8.6910299834 4.8311109694 8.9523881354
C -7.5345789617 4.0266298871 8.7473038777
C -7.6548176811 2.6330520974 8.5879211879
C -6.2616182824 4.6201308242 8.6682542442
C -6.5285111792 1.8532254748 8.3521694931
C -5.1374724061 3.8390288614 8.4431607707
C -5.2592320810 2.4460207463 8.2860598844
N -9.6349554634 5.5049660005 9.0925219919
N -4.1131513727 1.6783524147 8.0027766495
H -3.2927168694 1.9283630769 8.5519049406
H -4.2674150796 0.6723047587 8.0287889176
H -6.1629298569 5.6997611094 8.7710157566
H -8.6350458888 2.1624781318 8.6508462443
H -4.1536617277 4.3080199529 8.3818125559
H -6.6397507211 0.7758801276 8.2095850658
63
Frame from Quantum Espresso Output
Zn -1.0735560000 1.0841420000 1.1977640000
Zn -2.3094850000 6.1646920000 1.1977640000
Zn -4.2977914172 0.2979988773 4.2764089682
Zn -5.5465406925 5.3796500721 4.2898058503
Zn -8.2448587801 -0.6894395272 5.8222606108
Zn -9.5657886288 4.3812210061 5.7494037866
Zn -1.6915200000 3.6244170000 1.1977640000
Zn -2.9274500000 8.7049670000 1.1977640000
Zn -4.9208767341 2.8396903422 4.2638721648
Zn -6.1541968868 7.9161160836 4.2979113880
Zn -8.9328231803 1.8324115728 5.7516838583
Zn -10.0952057943 6.9418521286 5.8813274373
Zn 4.4565960000 1.0841420000 1.1977640000
Zn 3.2206660000 6.1646920000 1.1977640000
Zn 0.3848397363 0.0968387393 3.4767223526
Zn -0.8399072699 5.1761265283 3.4747843094
Zn -2.1747139722 -0.5311312005 5.6400751889
Zn -3.4284653489 4.5737970521 5.6168111158
Zn 3.8386310000 3.6244170000 1.1977640000
Zn 2.6027020000 8.7049670000 1.1977640000
Zn -0.1903245669 2.6467297040 3.4621840890
Zn -1.4672547750 7.7169659701 3.4746048128
Zn -2.9309096614 1.9898252749 5.8430236978
Zn -4.0200156487 7.1031704418 5.6525615038
Zn 1.6915200000 0.4114910000 0.8555450000
Zn 0.4555910000 5.4920410000 0.8555450000
Zn -2.2588652017 -0.5465483231 2.8644703828
Zn -3.4978213416 4.5342855038 2.8555293613
Zn -6.1165796598 -1.4952148936 4.4783647245
Zn -7.3651569193 3.5812863212 4.4669973527
Zn 1.0735560000 2.9517660000 0.8555450000
Zn -0.1623740000 8.0323160000 0.8555450000
Zn -2.8189437656 2.0047504858 2.9508095316
Zn -4.1099492868 7.0763926854 2.8678528085
Zn -6.7399862117 1.0460900560 4.4570529637
Zn -7.9817000201 6.1245312450 4.4778915641
Zn 7.2216720000 0.4114910000 0.8555450000
Zn 5.9857420000 5.4920410000 0.8555450000
Zn 2.9730816139 -0.6323743187 2.9289259593
Zn 1.7719949939 4.4743260458 2.8927711614
Zn 0.3268774897 -1.2482728444 5.8165125366
Zn -1.0006022261 3.7878479477 5.7925171884
Zn 6.6037070000 2.9517660000 0.8555450000
Zn 5.3677780000 8.0323160000 0.8555450000
Zn 2.3806662825 1.9169435369 2.8932357843
Zn 1.1255950508 7.0023775271 2.9342856120
Zn -0.3742899802 1.2929728122 5.7962484126
Zn -1.5244937454 6.3579479600 5.8180948853
C -8.6877437681 4.8322963976 8.9527507587
C -7.5326422208 4.0262584094 8.7473904814
C -7.6522601735 2.6334616195 8.5870727889
C -6.2592835750 4.6200927017 8.6679902659
C -6.5264214062 1.8534671021 8.3513701813
C -5.1362959353 3.8383699747 8.4419517939
C -5.2564054101 2.4467100305 8.2857855541
N -9.6326388917 5.5048265017 9.0941599075
N -4.1107751134 1.6791618897 8.0034054934
H -3.2901179430 1.9289505026 8.5520202287
H -4.2649677233 0.6730970389 8.0294799095
H -6.1615614451 5.6991434167 8.7691135035
H -8.6326115958 2.1624780614 8.6501141490
H -4.1524304835 4.3080881334 8.3807775752
H -6.6369769843 0.7767549127 8.2083156757
63
Frame from Quantum Espresso Output
Zn -1.0735560000 1.0841420000 1.1977640000
Zn -2.3094850000 6.1646920000 1.1977640000
Zn -4.2973034127 0.2992200055 4.2796311780
Zn -5.5463875487 5.3787540349 4.2935710147
Zn -8.2453228941 -0.6897009066 5.8248170945
Zn -9.5666855612 4.3825331323 5.7491237800
Zn -1.6915200000 3.6244170000 1.1977640000
Zn -2.9274500000 8.7049670000 1.1977640000
Zn -4.9213285781 2.8397113425 4.2680459720
Zn -6.1535980895 7.9169077950 4.2961730411
Zn -8.9354000844 1.8312988189 5.7502726762
Zn -10.0940394247 6.9422764170 5.8857109556
Zn 4.4565960000 1.0841420000 1.1977640000
Zn 3.2206660000 6.1646920000 1.1977640000
Zn 0.3831036933 0.0977825555 3.4752242082
Zn -0.8415081243 5.1768078679 3.4724905623
Zn -2.1772582399 -0.5322358537 5.6460753193
Zn -3.4285042748 4.5741403887 5.6189215600
Zn 3.8386310000 3.6244170000 1.1977640000
Zn 2.6027020000 8.7049670000 1.1977640000
Zn -0.1921084563 2.6466901413 3.4598880266
Zn -1.4683214819 7.7154710705 3.4727371445
Zn -2.9289892258 1.9908320135 5.8421486031
Zn -4.0222343590 7.1023995193 5.6575641000
Zn 1.6915200000 0.4114910000 0.8555450000
Zn 0.4555910000 5.4920410000 0.8555450000
Zn -2.2581626844 -0.5455103343 2.8661333120
Zn -3.4995289834 4.5329084375 2.8558045482
Zn -6.1156963522 -1.4948393203 4.4781649654
Zn -7.3659966053 3.5801096652 4.4682916119
Zn 1.0735560000 2.9517660000 0.8555450000
Zn -0.1623740000 8.0323160000 0.8555450000
Zn -2.8219224475 2.0056086343 2.9492343441
Zn -4.1097848541 7.0757601692 2.8688675815
Zn -6.7408690862 1.0467702718 4.4563575601
Zn -7.9814142787 6.1250847121 4.4801149559
Zn 7.2216720000 0.4114910000 0.8555450000
Zn 5.9857420000 5.4920410000 0.8555450000
Zn 2.9732804434 -0.6319946845 2.9296506489
Zn 1.7737547814 4.4743625428 2.8925659802
Zn 0.3276113754 -1.2488990395 5.8141020371
Zn -0.9994274615 3.7890553175 5.7902774686
Zn 6.6037070000 2.9517660000 0.8555450000
Zn 5.3677780000 8.0323160000 0.8555450000
Zn 2.3815310587 1.9182026438 2.8923675429
Zn 1.1259859123 7.0023706293 2.9360504071
Zn -0.3763169072 1.2919315059 5.7922383982
Zn -1.5236123321 6.3589221801 5.8132955970
C -8.6832785596 4.8346038836 8.9536388178
C -7.5294349627 4.0261933245 8.7474436220
C -7.6492301070 2.6328216505 8.5859844276
C -6.2566058852 4.6197535281 8.6670139481
C -6.5220812743 1.8540796392 8.3491643251
C -5.1336518910 3.8381579284 8.4406702239
C -5.2521531275 2.4470328619 8.2853609088
N -9.6298395415 5.5049528360 9.0964288425
N -4.1064759487 1.6793743203 8.0039146291
H -3.2859176715 1.9302549679 8.5523588903
H -4.2614128815 0.6739754837 8.0304118595
H -6.1594300113 5.6993138661 8.7667041072
H -8.6299953684 2.1626112914 8.6491319443
H -4.1503677321 4.3080355554 8.3793164018
H -6.6328966337 0.7778143502 8.2069257339
63
Frame from Quantum Espresso Output
Zn -1.0735560000 1.0841420000 1.1977640000
Zn -2.3094850000 6.1646920000 1.1977640000
Zn -4.2964151486 0.3006359884 4.2836722015
Zn -5.5460921304 5.3780858110 4.2980114572
Zn -8.2466194316 -0.6902368795 5.8279704238
Zn -9.5683094993 4.3840089493 5.7491738327
Zn -1.6915200000 3.6244170000 1.1977640000
Zn -2.9274500000 8.7049670000 1.1977640000
Zn -4.9215943559 2.8398191408 4.2732327684
Zn -6.1526736121 7.9178141175 4.2945337972
Zn -8.9387378073 1.8302659159 5.7486673673
Zn -10.0932769291 6.9423120269 5.8909913680
Zn 4.4565960000 1.0841420000 1.1977640000
Zn 3.2206660000 6.1646920000 1.1977640000
Zn 0.3812249045 0.0986389783 3.4732306199
Zn -0.8435142627 5.1776536500 3.4696572674
Zn -2.1799568102 -0.5337518368 5.6526548794
Zn -3.4279558935 4.5744497798 5.6212028152
Zn 3.8386310000 3.6244170000 1.1977640000
Zn 2.6027020000 8.7049670000 1.1977640000
Zn -0.1942664347 2.6467554311 3.4571038474
Zn -1.4696248341 7.7137339407 3.4703357996
Zn -2.9270868962 1.9921183750 5.8413211926
Zn -4.0241555782 7.1015928101 5.6634508341
Zn 1.6915200000 0.4114910000 0.8555450000
Zn 0.4555910000 5.4920410000 0.8555450000
Zn -2.2568693955 -0.5440463843 2.8680374155
Zn -3.5011340131 4.5312075788 2.8561161086
Zn -6.1151677995 -1.4943353651 4.4776144551
Zn -7.3667524643 3.5792754291 4.4697269454
Zn 1.0735560000 2.9517660000 0.8555450000
Zn -0.1623740000 8.0323160000 0.8555450000
Zn -2.8253133105 2.0066567948 2.9470178277
Zn -4.1093398192 7.0750009923 2.8703073405
Zn -6.7414403730 1.0473693070 4.4552270766
Zn -7.9812806962 6.1254738661 4.4826264268
Zn 7.2216720000 0.4114910000 0.8555450000
Zn 5.9857420000 5.4920410000 0.8555450000
Zn 2.9737173459 -0.6311821046 2.9310197313
Zn 1.7758483454 4.4741919331 2.8922528037
Zn 0.3280271815 -1.2493868159 5.8110757585
Zn -0.9981599880 3.7902692019 5.7873806532
Zn 6.6037070000 2.9517660000 0.8555450000
Zn 5.3677780000 8.0323160000 0.8555450000
Zn 2.3828682583 1.9196316933 2.8919598806
Zn 1.1263766614 7.0023525322 2.9381064565
Zn -0.3791982308 1.2905771991 5.7875098547
Zn -1.5227023319 6.3602077892 5.8075832143
C -8.6785784074 4.8369595922 8.9551712854
C -7.5259856558 4.0257293874 8.7471882752
C -7.6449669966 2.6317078106 8.5848839057
C -6.2531056116 4.6203535246 8.6649843818
C -6.5170719091 1.8549538735 8.3459951449
C -5.1293673070 3.8387679222 8.4398328956
C -5.2461635464 2.4468021417 8.2846567536
N -9.6265208297 5.5056525648 9.0990910242
N -4.1006090324 1.6798136358 8.0041593519
H -3.2805449856 1.9322576741 8.5529096080
H -4.2569312106 0.6738244855 8.0315340796
H -6.1564056341 5.7003967290 8.7641458987
H -8.6277979974 2.1625580348 8.6479006405
H -4.1468031361 4.3083131206 8.3774339216
H -6.6279062603 0.7784152101 8.2054023673
63
Frame from Quantum Espresso Output
Zn -1.0735560000 1.0841420000 1.1977640000
Zn -2.3094850000 6.1646920000 1.1977640000
Zn -4.2952888133 0.3016122053 4.2863739511
Zn -5.5456064319 5.3780741200 4.3003540979
Zn -8.2492878404 -0.6908828630 5.8301152066
Zn -9.5705653248 4.3845866937 5.7499676031
Zn -1.6915200000 3.6244170000 1.1977640000
Zn -2.9274500000 8.7049670000 1.1977640000
Zn -4.9212812837 2.8401589400 4.2764100758
Zn -6.1520291926 7.9182484274 4.2946762802
Zn -8.9410780871 1.8305385807 5.7478416654
Zn -10.0943086797 6.9408919016 5.8939850376
Zn 4.4565960000 1.0841420000 1.1977640000
Zn 3.2206660000 6.1646920000 1.1977640000
Zn 0.3805600970 0.0992927607 3.4716421793
Zn -0.8448153214 5.1781682693 3.4679042451
Zn -2.1808580889 -0.5345844485 5.6551138586
Zn -3.4264710653 4.5742683521 5.6218156375
Zn 3.8386310000 3.6244170000 1.1977640000
Zn 2.6027020000 8.7049670000 1.1977640000
Zn -0.1953533481 2.6469957909 3.4554140856
Zn -1.4702310883 7.7122353770 3.4686879696
Zn -2.9268383621 1.9931285869 5.8412421488
Zn -4.0236032190 7.1009400438 5.6666432233
Zn 1.6915200000 0.4114910000 0.8555450000
Zn 0.4555910000 5.4920410000 0.8555450000
Zn -2.2550254277 -0.5424942325 2.8687119155
Zn -3.5008182979 4.5297083171 2.8561801811
Zn -6.1159366673 -1.4942351016 4.4766781157
Zn -7.3668431942 3.5796449546 4.4701353762
Zn 1.0735560000 2.9517660000 0.8555450000
Zn -0.1623740000 8.0323160000 0.8555450000
Zn -2.8266160871 2.0078614392 2.9449977071
Zn -4.1083598836 7.0743588616 2.8713598341
Zn -6.7409543964 1.0478877189 4.4539263615
Zn -7.9820321312 6.1249264882 4.4837434615
Zn 7.2216720000 0.4114910000 0.8555450000
Zn 5.9857420000 5.4920410000 0.8555450000
Zn 2.9744017117 -0.6297175902 2.9327959622
Zn 1.7769253398 4.4731319953 2.8919055793
Zn 0.3278564230 -1.2489771443 5.8092723208
Zn -0.9974337226 3.7904738936 5.7852085038
Zn 6.6037070000 2.9517660000 0.8555450000
Zn 5.3677780000 8.0323160000 0.8555450000
Zn 2.3841700839 1.9207772422 2.8931971636
Zn 1.1263626402 7.0020040665 2.9392080531
Zn -0.3816196189 1.2899478714 5.7849734510
Zn -1.5221798695 6.3609978693 5.8044353036
C -8.6765368433 4.8381372205 8.9565956310
C -7.5237166563 4.0259304706 8.7467145441
C -7.6434057817 2.6311238188 8.5843825404
C -6.2509762639 4.6207999296 8.6630664021
C -6.5133019944 1.8549316795 8.3433043585
C -5.1263167754 3.8390735205 8.4398279572
C -5.2425751418 2.4474548278 8.2840280083
N -9.6244435875 5.5064568296 9.1005245772
N -4.0960122191 1.6788705181 8.0040037602
H -3.2767127530 1.9336948629 8.5533168931
H -4.2534898561 0.6735061327 8.0322685470
H -6.1543340602 5.7017775049 8.7630321571
H -8.6266122396 2.1626900745 8.6472009882
H -4.1431509722 4.3089613698 8.3764744977
H -6.6244940769 0.7783754352 8.2049238439
