62
Final Frame from Quantum Espresso Output
Zn -1.0735560000 1.0841420000 1.1977640000
Zn -2.3094850000 6.1646920000 1.1977640000
Zn -4.8702889016 0.1634433397 3.7966975255
Zn -6.1134592919 5.2353993622 3.7859153625
Zn -9.0118386915 -0.8656547273 5.8400005693
Zn -10.2612918148 4.2164338096 5.7261500099
Zn -1.6915200000 3.6244170000 1.1977640000
Zn -2.9274500000 8.7049670000 1.1977640000
Zn -5.4968072679 2.6978530787 3.7999790050
Zn -6.7234380335 7.7822883637 3.7898877914
Zn -9.6321774411 1.6656092829 5.7890033379
Zn -10.8730548066 6.7601707445 5.8023718258
Zn 4.4565960000 1.0841420000 1.1977640000
Zn 3.2206660000 6.1646920000 1.1977640000
Zn 0.5233920262 0.1250325270 3.4597881260
Zn -0.7156834661 5.2080748329 3.4456821073
Zn -3.1499814658 -0.7679795937 5.7346143507
Zn -4.4008937565 4.3065427480 5.7381457866
Zn 3.8386310000 3.6244170000 1.1977640000
Zn 2.6027020000 8.7049670000 1.1977640000
Zn -0.0902253154 2.6633068495 3.4536736146
Zn -1.3285879936 7.7505638244 3.4662319926
Zn -3.7738468121 1.7686860041 5.7421453651
Zn -5.0119197442 6.8503790000 5.7277101200
Zn 1.6915200000 0.4114910000 0.8555450000
Zn 0.4555910000 5.4920410000 0.8555450000
Zn -2.3433664627 -0.5697013483 2.9406343407
Zn -3.5858229849 4.5061860414 2.9468438453
Zn -6.5431085955 -1.5962819415 4.9671825773
Zn -7.7813404325 3.4782847725 4.9893637097
Zn 1.0735560000 2.9517660000 0.8555450000
Zn -0.1623740000 8.0323160000 0.8555450000
Zn -2.9623240086 1.9702027820 2.9525519346
Zn -4.1994676970 7.0480330499 2.9398688323
Zn -7.1628380304 0.9398662375 4.9812860171
Zn -8.3915521728 6.0243112978 4.9737401758
Zn 7.2216720000 0.4114910000 0.8555450000
Zn 5.9857420000 5.4920410000 0.8555450000
Zn 3.1355591893 -0.5883106392 2.9008370918
Zn 1.9091250884 4.4894570356 2.8998867789
Zn -0.6594292744 -1.5083834913 5.2013223339
Zn -1.9057183231 3.5706859054 5.1854659127
Zn 6.6037070000 2.9517660000 0.8555450000
Zn 5.3677780000 8.0323160000 0.8555450000
Zn 2.5267430311 1.9513550187 2.8957318497
Zn 1.2837120182 7.0301473540 2.9047210577
Zn -1.2776286192 1.0352088237 5.2034841801
Zn -2.5255698382 6.1067374711 5.1799885619
C -8.7958430049 -1.1046211799 10.5868651278
C -10.7462632713 1.8247784975 9.5801481311
C -8.0428406861 1.1267273073 9.8455628427
C -9.6460299605 2.7827279324 9.3388027930
C -9.1398545011 0.1029584579 10.0535420276
C -8.3032905564 2.3980382277 9.5237201316
C -10.4750078801 0.5376235724 9.8358298204
N -9.9675114794 4.0015430619 8.8720012509
H -7.7567048252 -1.3460905425 10.8167030823
H -11.7598711542 2.2058381173 9.4008628750
H -7.0435164632 0.7485979547 10.0947787816
H -9.5660419465 -1.8316405440 10.8387291672
H -9.2280084197 4.6451695393 8.6078638111
H -10.9266631368 4.2698980432 8.6801651630
