
 OpenBabel03092511093D

  3  2  0  0  0  0  0  0  0  0999 V2000
    0.9390    0.0586    0.0283 O   0  0  0  0  0  0  0  0  0  0  0  0
    1.9284    0.0972    0.0470 H   0  0  0  0  0  0  0  0  0  0  0  0
    0.6497    0.9112    0.4406 H   0  0  0  0  0  0  0  0  0  0  0  0
  1  2  1  0  0  0  0
  1  3  1  0  0  0  0
M  END
