32
Zn2
Zn    1.218290    1.307180    0.754701
Zn    1.218290   -0.000000    3.018803
Zn    1.218290    3.921540    0.754701
Zn    1.218290    2.614360    3.018803
Zn    1.218290    6.535900    0.754701
Zn    1.218290    5.228720    3.018803
Zn    1.218290    9.150260    0.754701
Zn    1.218290    7.843080    3.018803
Zn    6.091451    1.307180    0.754701
Zn    6.091451   -0.000000    3.018803
Zn    6.091451    3.921540    0.754701
Zn    6.091451    2.614360    3.018803
Zn    6.091451    6.535900    0.754701
Zn    6.091451    5.228720    3.018803
Zn    6.091451    9.150260    0.754701
Zn    6.091451    7.843080    3.018803
Zn    3.654871   -0.000000    1.509401
Zn    3.654871   -1.307180    3.773503
Zn    3.654871    2.614360    1.509401
Zn    3.654871    1.307180    3.773503
Zn    3.654871    5.228720    1.509401
Zn    3.654871    3.921540    3.773503
Zn    3.654871    7.843080    1.509401
Zn    3.654871    6.535900    3.773503
Zn    8.528031   -0.000000    1.509401
Zn    8.528031   -1.307180    3.773503
Zn    8.528031    2.614360    1.509401
Zn    8.528031    1.307180    3.773503
Zn    8.528031    5.228720    1.509401
Zn    8.528031    3.921540    3.773503
Zn    8.528031    7.843080    1.509401
Zn    8.528031    6.535900    3.773503
