32
Frame from Quantum Espresso Output
Zn 1.2182902100 1.3071799370 0.7547006830
Zn 1.2182902100 -0.0000000030 3.0357513818
Zn 1.2182902100 3.9215397930 0.7547006830
Zn 1.2182902100 2.6143598530 3.0357610594
Zn 1.2182902100 6.5358996480 0.7547006830
Zn 1.2182902100 5.2287197080 3.0357751026
Zn 1.2182902100 9.1502595040 0.7547006830
Zn 1.2182902100 7.8430795640 3.0357723598
Zn 6.0914510490 1.3071799370 0.7547006830
Zn 6.0914510490 -0.0000000030 3.0356997153
Zn 6.0914510490 3.9215397930 0.7547006830
Zn 6.0914510490 2.6143598530 3.0357110594
Zn 6.0914510490 6.5358996480 0.7547006830
Zn 6.0914510490 5.2287197080 3.0357291695
Zn 6.0914510490 9.1502595040 0.7547006830
Zn 6.0914510490 7.8430795640 3.0357246828
Zn 3.6548706290 -0.0000000210 1.5094013870
Zn 3.6548706290 -1.3071799610 3.7786829087
Zn 3.6548706290 2.6143598350 1.5094013870
Zn 3.6548706290 1.3071798950 3.7786790333
Zn 3.6548706290 5.2287196900 1.5094013870
Zn 3.6548706290 3.9215397500 3.7786858921
Zn 3.6548706290 7.8430795460 1.5094013870
Zn 3.6548706290 6.5358996060 3.7786835176
Zn 8.5280314680 -0.0000000210 1.5094013870
Zn 8.5280314680 -1.3071799610 3.7787026620
Zn 8.5280314680 2.6143598350 1.5094013870
Zn 8.5280314680 1.3071798950 3.7787028635
Zn 8.5280314680 5.2287196900 1.5094013870
Zn 8.5280314680 3.9215397500 3.7787064848
Zn 8.5280314680 7.8430795460 1.5094013870
Zn 8.5280314680 6.5358996060 3.7787011147
32
Frame from Quantum Espresso Output
Zn 1.2182902100 1.3071799370 0.7547006830
Zn 1.2182902100 -0.0000000030 3.0543575637
Zn 1.2182902100 3.9215397930 0.7547006830
Zn 1.2182902100 2.6143598530 3.0543729170
Zn 1.2182902100 6.5358996480 0.7547006830
Zn 1.2182902100 5.2287197080 3.0543726169
Zn 1.2182902100 9.1502595040 0.7547006830
Zn 1.2182902100 7.8430795640 3.0543606351
Zn 6.0914510490 1.3071799370 0.7547006830
Zn 6.0914510490 -0.0000000030 3.0543661826
Zn 6.0914510490 3.9215397930 0.7547006830
Zn 6.0914510490 2.6143598530 3.0543806451
Zn 6.0914510490 6.5358996480 0.7547006830
Zn 6.0914510490 5.2287197080 3.0543959087
Zn 6.0914510490 9.1502595040 0.7547006830
Zn 6.0914510490 7.8430795640 3.0543849919
Zn 3.6548706290 -0.0000000210 1.5094013870
Zn 3.6548706290 -1.3071799610 3.7842889605
Zn 3.6548706290 2.6143598350 1.5094013870
Zn 3.6548706290 1.3071798950 3.7842973620
Zn 3.6548706290 5.2287196900 1.5094013870
Zn 3.6548706290 3.9215397500 3.7843018042
Zn 3.6548706290 7.8430795460 1.5094013870
Zn 3.6548706290 6.5358996060 3.7842872588
Zn 8.5280314680 -0.0000000210 1.5094013870
Zn 8.5280314680 -1.3071799610 3.7842820555
Zn 8.5280314680 2.6143598350 1.5094013870
Zn 8.5280314680 1.3071798950 3.7843040065
Zn 8.5280314680 5.2287196900 1.5094013870
Zn 8.5280314680 3.9215397500 3.7842987772
Zn 8.5280314680 7.8430795460 1.5094013870
Zn 8.5280314680 6.5358996060 3.7842723974
32
Frame from Quantum Espresso Output
Zn 1.2182902100 1.3071799370 0.7547006830
Zn 1.2182902100 -0.0000000030 3.0823088829
Zn 1.2182902100 3.9215397930 0.7547006830
Zn 1.2182902100 2.6143598530 3.0823172736
Zn 1.2182902100 6.5358996480 0.7547006830
Zn 1.2182902100 5.2287197080 3.0823601757
Zn 1.2182902100 9.1502595040 0.7547006830
Zn 1.2182902100 7.8430795640 3.0823650136
Zn 6.0914510490 1.3071799370 0.7547006830
Zn 6.0914510490 -0.0000000030 3.0822860693
Zn 6.0914510490 3.9215397930 0.7547006830
Zn 6.0914510490 2.6143598530 3.0822957010
Zn 6.0914510490 6.5358996480 0.7547006830
Zn 6.0914510490 5.2287197080 3.0823487912
Zn 6.0914510490 9.1502595040 0.7547006830
Zn 6.0914510490 7.8430795640 3.0823508035
Zn 3.6548706290 -0.0000000210 1.5094013870
Zn 3.6548706290 -1.3071799610 3.7928224662
Zn 3.6548706290 2.6143598350 1.5094013870
Zn 3.6548706290 1.3071798950 3.7928052819
Zn 3.6548706290 5.2287196900 1.5094013870
Zn 3.6548706290 3.9215397500 3.7928181278
Zn 3.6548706290 7.8430795460 1.5094013870
Zn 3.6548706290 6.5358996060 3.7928346168
Zn 8.5280314680 -0.0000000210 1.5094013870
Zn 8.5280314680 -1.3071799610 3.7928409940
Zn 8.5280314680 2.6143598350 1.5094013870
Zn 8.5280314680 1.3071798950 3.7928214616
Zn 8.5280314680 5.2287196900 1.5094013870
Zn 8.5280314680 3.9215397500 3.7928347741
Zn 8.5280314680 7.8430795460 1.5094013870
Zn 8.5280314680 6.5358996060 3.7928528273
