63
Final Frame from Quantum Espresso Output
Zn -1.0735560000 1.0841420000 1.1977640000
Zn -2.3094850000 6.1646920000 1.1977640000
Zn -4.2364788114 0.3104725482 4.3488446858
Zn -5.4836851510 5.3905769959 4.3562785703
Zn -8.1846236888 -0.6671802744 5.8224929645
Zn -9.3911110754 4.4242352186 5.9744768509
Zn -1.6915200000 3.6244170000 1.1977640000
Zn -2.9274500000 8.7049670000 1.1977640000
Zn -4.8664606632 2.8540095977 4.3463854188
Zn -6.0922679763 7.9279222848 4.3563378928
Zn -8.8156572179 1.8622598807 5.7957407721
Zn -10.0529225025 6.9595177806 5.8039257260
Zn 4.4565960000 1.0841420000 1.1977640000
Zn 3.2206660000 6.1646920000 1.1977640000
Zn 0.4225173497 0.1006280270 3.4621868466
Zn -0.8088805115 5.1920763518 3.4314597146
Zn -2.0920740141 -0.5029237850 5.6804531437
Zn -3.3409403644 4.5726245182 5.6823528916
Zn 3.8386310000 3.6244170000 1.1977640000
Zn 2.6027020000 8.7049670000 1.1977640000
Zn -0.1861503152 2.6349333509 3.4331499069
Zn -1.4312674574 7.7232094619 3.4624478218
Zn -2.7224083202 2.0299769179 5.6790961060
Zn -3.9461732525 7.1130357081 5.6837195056
Zn 1.6915200000 0.4114910000 0.8555450000
Zn 0.4555910000 5.4920410000 0.8555450000
Zn -2.2372366504 -0.5443727645 2.8783316647
Zn -3.4801556590 4.5366453623 2.8756626944
Zn -6.0604678693 -1.4798906073 4.4227693195
Zn -7.3201383869 3.5997031159 4.4891623238
Zn 1.0735560000 2.9517660000 0.8555450000
Zn -0.1623740000 8.0323160000 0.8555450000
Zn -2.8622851800 1.9967359725 2.8734792077
Zn -4.0925850201 7.0779174965 2.8807531016
Zn -6.6800529125 1.0574192803 4.4269844116
Zn -7.9310309114 6.1301320137 4.4830026552
Zn 7.2216720000 0.4114910000 0.8555450000
Zn 5.9857420000 5.4920410000 0.8555450000
Zn 3.0083445208 -0.6160112176 2.9180835690
Zn 1.7892435250 4.4684900566 2.9314870517
Zn 0.3919270686 -1.2405863690 5.8025954878
Zn -0.8527875332 3.8368812694 5.6949006025
Zn 6.6037070000 2.9517660000 0.8555450000
Zn 5.3677780000 8.0323160000 0.8555450000
Zn 2.4033702880 1.9304481630 2.9191765894
Zn 1.1702971949 7.0054863010 2.9211683303
Zn -0.2269130856 1.3124995222 5.8140288086
Zn -1.4590698811 6.3666529411 5.8093924644
C -5.8776501967 5.5149528174 12.3278827184
C -6.8633023853 5.2043388260 11.3451180345
C -7.7341441860 6.2032871071 10.8681428758
C -6.9810001224 3.8937922856 10.8425876310
C -8.7025564485 5.8965541346 9.9227397006
C -7.9496427529 3.5882417911 9.8971075860
C -8.8302097920 4.5830839624 9.4369050365
N -5.0706667473 5.7699264017 13.1319797307
N -9.7839991186 4.2833756166 8.4588164663
H -10.0785087314 3.3089711056 8.4082557003
H -10.5870334559 4.9092253897 8.4180351077
H -6.3094823134 3.1171520138 11.2082380925
H -7.6479837386 7.2190422680 11.2541796864
H -8.0366043483 2.5700015019 9.5118889863
H -9.3768888118 6.6745575933 9.5589472090
