79
Frame from Quantum Espresso Output
Zn 1.2182902100 1.3071799380 0.7547006810
Zn 1.2182902100 6.5358996490 0.7547006810
Zn 1.2182902100 0.0000000010 3.0188027470
Zn 1.2182902100 5.2287197120 3.0188027470
Zn 1.2185726075 -1.3073880994 5.6729282852
Zn 1.2186851431 3.9215451479 5.6720151579
Zn 1.2927458140 -2.3610016840 8.3136366846
Zn 1.2181516268 2.6139513301 8.3113191859
Zn 1.2182902100 3.9215397940 0.7547006810
Zn 1.2182902100 9.1502595050 0.7547006810
Zn 1.2182902100 2.6143598570 3.0188027470
Zn 1.2182902100 7.8430795680 3.0188027470
Zn 1.2186883199 1.3072854268 5.6723424169
Zn 1.2185625130 6.5357747424 5.6727099542
Zn 1.2183638887 0.0001689187 8.3122579336
Zn 1.2839804177 4.9757084594 8.3115941838
Zn 6.0914510490 1.3071799380 0.7547006810
Zn 6.0914510490 6.5358996490 0.7547006810
Zn 6.0914510490 0.0000000010 3.0188027470
Zn 6.0914510490 5.2287197120 3.0188027470
Zn 6.0911338514 -1.3072242637 5.6748546444
Zn 6.0910857638 3.9213990650 5.6741431289
Zn 6.0158136774 -2.3610725817 8.3135540531
Zn 6.0908423532 2.6141307502 8.3129267942
Zn 6.0914510490 3.9215397940 0.7547006810
Zn 6.0914510490 9.1502595050 0.7547006810
Zn 6.0914510490 2.6143598570 3.0188027470
Zn 6.0914510490 7.8430795680 3.0188027470
Zn 6.0911030401 1.3076064174 5.6744400348
Zn 6.0911314819 6.5354481156 5.6746346244
Zn 6.0908570145 0.0002266086 8.3122205038
Zn 6.0161063126 4.9756627776 8.3118846524
Zn 3.6548706290 -0.0000000190 1.5094013850
Zn 3.6548706290 5.2287196920 1.5094013850
Zn 3.6548706290 -1.3071799560 3.7735034500
Zn 3.6548706290 3.9215397550 3.7735034500
Zn 3.6546710580 -2.6147701593 6.0778389286
Zn 3.6547432516 2.6146750712 6.0771464013
Zn 3.7314464612 -3.6693849543 8.4694370794
Zn 3.6563614944 1.3070000219 8.4694650657
Zn 3.6548706290 2.6143598370 1.5094013850
Zn 3.6548706290 7.8430795480 1.5094013850
Zn 3.6548706290 1.3071799000 3.7735034500
Zn 3.6548706290 6.5358996110 3.7735034500
Zn 3.6547437702 0.0001669099 6.0773502731
Zn 3.6547864959 5.2284186199 6.0775758154
Zn 3.6560137699 -1.3068644245 8.4676728785
Zn 3.7308947619 3.6690213844 8.4674014440
Zn 8.5280314680 -0.0000000190 1.5094013850
Zn 8.5280314680 5.2287196920 1.5094013850
Zn 8.5280314680 -1.3071799560 3.7735034500
Zn 8.5280314680 3.9215397550 3.7735034500
Zn 8.5281647867 -2.6147587956 6.0779299812
Zn 8.5281732184 2.6146472247 6.0772010317
Zn 8.4613373982 -3.6696275125 8.4717121391
Zn 8.5272807005 1.3068697732 8.4680429218
Zn 8.5280314680 2.6143598370 1.5094013850
Zn 8.5280314680 7.8430795480 1.5094013850
Zn 8.5280314680 1.3071799000 3.7735034500
Zn 8.5280314680 6.5358996110 3.7735034500
Zn 8.5282171944 -0.0000137934 6.0774321744
Zn 8.5281738077 5.2286143460 6.0776528160
Zn 8.5276363919 -1.3067818959 8.4685378683
Zn 8.4528547809 3.6685237180 8.4689031873
C 4.0638811474 1.5634207874 11.0109413885
C 2.9743077114 1.0041579631 13.1347131519
C 4.9085972025 2.0426190697 11.6879837819
C 3.8943979586 1.5304012868 13.7042570316
C 4.9312532242 2.0832787917 12.9626301665
C 5.7397230253 2.4897657215 10.9765092484
C 3.8985352030 1.5570576141 15.0700093389
N 3.0212286559 1.0845728015 15.6615371925
N 5.9773410949 2.6764691496 13.6403669083
H 4.9358149377 2.1460013082 15.7750410697
H 5.9962615833 2.7166970073 15.0344709663
H 6.8076786303 3.1239049562 13.0909176508
H 4.9480056374 2.1835470485 17.2151935338
H 4.9556027872 2.2121766305 18.3598471428
H 6.8212700707 3.1842598322 15.5609511121
79
Frame from Quantum Espresso Output
Zn 1.2182902100 1.3071799380 0.7547006810
Zn 1.2182902100 6.5358996490 0.7547006810
Zn 1.2182902100 0.0000000010 3.0188027470
Zn 1.2182902100 5.2287197120 3.0188027470
Zn 1.2185726075 -1.3073880994 5.6729282852
Zn 1.2186851431 3.9215451479 5.6720151579
Zn 1.2908341152 -2.3613903134 8.3238692519
Zn 1.2108658048 2.5885979687 8.3047905379
Zn 1.2182902100 3.9215397940 0.7547006810
Zn 1.2182902100 9.1502595050 0.7547006810
Zn 1.2182902100 2.6143598570 3.0188027470
Zn 1.2182902100 7.8430795680 3.0188027470
Zn 1.2186883199 1.3072854268 5.6723424169
Zn 1.2185625130 6.5357747424 5.6727099542
Zn 1.2145690116 0.0245095961 8.3097659896
Zn 1.1631312707 4.9376628027 8.3062474567
Zn 6.0914510490 1.3071799380 0.7547006810
Zn 6.0914510490 6.5358996490 0.7547006810
Zn 6.0914510490 0.0000000010 3.0188027470
Zn 6.0914510490 5.2287197120 3.0188027470
Zn 6.0911338514 -1.3072242637 5.6748546444
Zn 6.0910857638 3.9213990650 5.6741431289
Zn 6.0107522997 -2.3580535745 8.3282362857
Zn 6.0899975391 2.5863552513 8.3254878982
Zn 6.0914510490 3.9215397940 0.7547006810
Zn 6.0914510490 9.1502595050 0.7547006810
Zn 6.0914510490 2.6143598570 3.0188027470
Zn 6.0914510490 7.8430795680 3.0188027470
Zn 6.0911030401 1.3076064174 5.6744400348
Zn 6.0911314819 6.5354481156 5.6746346244
Zn 6.0894056566 0.0222504606 8.3102834880
Zn 6.0103632802 4.9795702007 8.3148199892
Zn 3.6548706290 -0.0000000190 1.5094013850
Zn 3.6548706290 5.2287196920 1.5094013850
Zn 3.6548706290 -1.3071799560 3.7735034500
Zn 3.6548706290 3.9215397550 3.7735034500
Zn 3.6546710580 -2.6147701593 6.0778389286
Zn 3.6547432516 2.6146750712 6.0771464013
Zn 3.7417518651 -3.6738017583 8.4947685695
Zn 3.6588232796 1.2868011599 8.4907155581
Zn 3.6548706290 2.6143598370 1.5094013850
Zn 3.6548706290 7.8430795480 1.5094013850
Zn 3.6548706290 1.3071799000 3.7735034500
Zn 3.6548706290 6.5358996110 3.7735034500
Zn 3.6547437702 0.0001669099 6.0773502731
Zn 3.6547864959 5.2284186199 6.0775758154
Zn 3.6572565630 -1.2774227311 8.4723035848
Zn 3.7318600731 3.6655710695 8.4726340078
Zn 8.5280314680 -0.0000000190 1.5094013850
Zn 8.5280314680 5.2287196920 1.5094013850
Zn 8.5280314680 -1.3071799560 3.7735034500
Zn 8.5280314680 3.9215397550 3.7735034500
Zn 8.5281647867 -2.6147587956 6.0779299812
Zn 8.5281732184 2.6146472247 6.0772010317
Zn 8.5779325852 -3.6321214010 8.5081284862
Zn 8.5313742852 1.2864429391 8.4641728786
Zn 8.5280314680 2.6143598370 1.5094013850
Zn 8.5280314680 7.8430795480 1.5094013850
Zn 8.5280314680 1.3071799000 3.7735034500
Zn 8.5280314680 6.5358996110 3.7735034500
Zn 8.5282171944 -0.0000137934 6.0774321744
Zn 8.5281738077 5.2286143460 6.0776528160
Zn 8.5348521810 -1.2800845331 8.4707207721
Zn 8.4570408701 3.6693813419 8.4732523074
C 3.8979643040 1.4657015245 10.8154714738
C 2.8234174850 0.9185135093 13.0270102690
C 4.9109165646 2.0447159719 11.8183622795
C 4.0221887212 1.6002552587 13.7170950486
C 5.0501251359 2.1541096925 13.1909957650
C 5.8830618909 2.5652546834 10.7634444161
C 3.9930735485 1.6103384923 15.1158823699
N 2.9193715264 1.0301656462 15.7577226654
N 5.9451100129 2.6578320511 13.5965056741
H 4.9150176033 2.1341717718 15.7611781466
H 6.0409255809 2.7415089215 15.0348526533
H 6.7708806253 3.1037021311 13.1053415317
H 4.9528257427 2.1882300743 17.3066026278
H 4.9537131883 2.2092825350 18.2722546441
H 6.7917739031 3.1682942979 15.5759783511
79
Frame from Quantum Espresso Output
Zn 1.2182902100 1.3071799380 0.7547006810
Zn 1.2182902100 6.5358996490 0.7547006810
Zn 1.2182902100 0.0000000010 3.0188027470
Zn 1.2182902100 5.2287197120 3.0188027470
Zn 1.2185726075 -1.3073880994 5.6729282852
Zn 1.2186851431 3.9215451479 5.6720151579
Zn 1.3029480291 -2.3148042180 8.3377367962
Zn 1.2026736255 2.5577387843 8.2964712340
Zn 1.2182902100 3.9215397940 0.7547006810
Zn 1.2182902100 9.1502595050 0.7547006810
Zn 1.2182902100 2.6143598570 3.0188027470
Zn 1.2182902100 7.8430795680 3.0188027470
Zn 1.2186883199 1.3072854268 5.6723424169
Zn 1.2185625130 6.5357747424 5.6727099542
Zn 1.2092916598 0.0514357731 8.3062452177
Zn 1.0624461816 4.8642307731 8.3012876738
Zn 6.0914510490 1.3071799380 0.7547006810
Zn 6.0914510490 6.5358996490 0.7547006810
Zn 6.0914510490 0.0000000010 3.0188027470
Zn 6.0914510490 5.2287197120 3.0188027470
Zn 6.0911338514 -1.3072242637 5.6748546444
Zn 6.0910857638 3.9213990650 5.6741431289
Zn 6.0081216344 -2.3161821690 8.3484283876
Zn 6.0895679251 2.5554380617 8.3440587650
Zn 6.0914510490 3.9215397940 0.7547006810
Zn 6.0914510490 9.1502595050 0.7547006810
Zn 6.0914510490 2.6143598570 3.0188027470
Zn 6.0914510490 7.8430795680 3.0188027470
Zn 6.0911030401 1.3076064174 5.6744400348
Zn 6.0911314819 6.5354481156 5.6746346244
Zn 6.0879753991 0.0463018505 8.3080487109
Zn 5.9910662207 4.9372419565 8.3174092063
Zn 3.6548706290 -0.0000000190 1.5094013850
Zn 3.6548706290 5.2287196920 1.5094013850
Zn 3.6548706290 -1.3071799560 3.7735034500
Zn 3.6548706290 3.9215397550 3.7735034500
Zn 3.6546710580 -2.6147701593 6.0778389286
Zn 3.6547432516 2.6146750712 6.0771464013
Zn 3.7664022453 -3.6311972763 8.5274688798
Zn 3.6607833838 1.2640242033 8.5186351051
Zn 3.6548706290 2.6143598370 1.5094013850
Zn 3.6548706290 7.8430795480 1.5094013850
Zn 3.6548706290 1.3071799000 3.7735034500
Zn 3.6548706290 6.5358996110 3.7735034500
Zn 3.6547437702 0.0001669099 6.0773502731
Zn 3.6547864959 5.2284186199 6.0775758154
Zn 3.6580600281 -1.2447844004 8.4780246148
Zn 3.7294115425 3.6237736779 8.4767851104
Zn 8.5280314680 -0.0000000190 1.5094013850
Zn 8.5280314680 5.2287196920 1.5094013850
Zn 8.5280314680 -1.3071799560 3.7735034500
Zn 8.5280314680 3.9215397550 3.7735034500
Zn 8.5281647867 -2.6147587956 6.0779299812
Zn 8.5281732184 2.6146472247 6.0772010317
Zn 8.6741575494 -3.5592687016 8.5517919246
Zn 8.5370452314 1.2636315917 8.4592172704
Zn 8.5280314680 2.6143598370 1.5094013850
Zn 8.5280314680 7.8430795480 1.5094013850
Zn 8.5280314680 1.3071799000 3.7735034500
Zn 8.5280314680 6.5358996110 3.7735034500
Zn 8.5282171944 -0.0000137934 6.0774321744
Zn 8.5281738077 5.2286143460 6.0776528160
Zn 8.5427868583 -1.2478382527 8.4734875162
Zn 8.4483344216 3.6239486685 8.4763814224
C 3.8723842040 1.4495455336 10.7572223590
C 2.8022688361 0.9058950969 12.9905545843
C 4.9192381874 2.0455183650 11.6848524778
C 3.9453010612 1.5580203031 13.7528901826
C 4.9793079829 2.1143583542 13.1697106550
C 5.8840937126 2.5640869843 10.6829779117
C 3.9852808341 1.6095707932 15.2267785916
N 2.9239607727 1.0327992975 15.7750854461
N 6.1767291402 2.7885167760 13.6938882748
H 4.8767935084 2.1123833013 15.7378269025
H 6.1080818270 2.7789900954 15.0470395341
H 6.7302760581 3.0812264621 13.1192510860
H 4.9571604028 2.1930909912 17.4212897906
H 4.9522635338 2.2062126157 18.1663844963
H 6.7530941818 3.1471774953 15.5903664931
79
Frame from Quantum Espresso Output
Zn 1.2182902100 1.3071799380 0.7547006810
Zn 1.2182902100 6.5358996490 0.7547006810
Zn 1.2182902100 0.0000000010 3.0188027470
Zn 1.2182902100 5.2287197120 3.0188027470
Zn 1.2185726075 -1.3073880994 5.6729282852
Zn 1.2186851431 3.9215451479 5.6720151579
Zn 1.3259804845 -2.2325409564 8.3614035095
Zn 1.1913252563 2.5073868943 8.2827851245
Zn 1.2182902100 3.9215397940 0.7547006810
Zn 1.2182902100 9.1502595050 0.7547006810
Zn 1.2182902100 2.6143598570 3.0188027470
Zn 1.2182902100 7.8430795680 3.0188027470
Zn 1.2186883199 1.3072854268 5.6723424169
Zn 1.2185625130 6.5357747424 5.6727099542
Zn 1.1996092329 0.0911392339 8.2999310958
Zn 0.9499922997 4.7560891237 8.2950518830
Zn 6.0914510490 1.3071799380 0.7547006810
Zn 6.0914510490 6.5358996490 0.7547006810
Zn 6.0914510490 0.0000000010 3.0188027470
Zn 6.0914510490 5.2287197120 3.0188027470
Zn 6.0911338514 -1.3072242637 5.6748546444
Zn 6.0910857638 3.9213990650 5.6741431289
Zn 6.0188723294 -2.2435124309 8.3830736884
Zn 6.0904058522 2.5102979668 8.3769172947
Zn 6.0914510490 3.9215397940 0.7547006810
Zn 6.0914510490 9.1502595050 0.7547006810
Zn 6.0914510490 2.6143598570 3.0188027470
Zn 6.0914510490 7.8430795680 3.0188027470
Zn 6.0911030401 1.3076064174 5.6744400348
Zn 6.0911314819 6.5354481156 5.6746346244
Zn 6.0865201617 0.0812889390 8.3042094735
Zn 5.9617362541 4.8594882161 8.3199291859
Zn 3.6548706290 -0.0000000190 1.5094013850
Zn 3.6548706290 5.2287196920 1.5094013850
Zn 3.6548706290 -1.3071799560 3.7735034500
Zn 3.6548706290 3.9215397550 3.7735034500
Zn 3.6546710580 -2.6147701593 6.0778389286
Zn 3.6547432516 2.6146750712 6.0771464013
Zn 3.8027927964 -3.5525483165 8.5800296644
Zn 3.6623407972 1.2303896116 8.5657709666
Zn 3.6548706290 2.6143598370 1.5094013850
Zn 3.6548706290 7.8430795480 1.5094013850
Zn 3.6548706290 1.3071799000 3.7735034500
Zn 3.6548706290 6.5358996110 3.7735034500
Zn 3.6547437702 0.0001669099 6.0773502731
Zn 3.6547864959 5.2284186199 6.0775758154
Zn 3.6580880366 -1.1971882055 8.4873051654
Zn 3.7105779864 3.5530240342 8.4807197613
Zn 8.5280314680 -0.0000000190 1.5094013850
Zn 8.5280314680 5.2287196920 1.5094013850
Zn 8.5280314680 -1.3071799560 3.7735034500
Zn 8.5280314680 3.9215397550 3.7735034500
Zn 8.5281647867 -2.6147587956 6.0779299812
Zn 8.5281732184 2.6146472247 6.0772010317
Zn 8.7812128822 -3.4519472385 8.6181402365
Zn 8.5471921766 1.2297709991 8.4510420001
Zn 8.5280314680 2.6143598370 1.5094013850
Zn 8.5280314680 7.8430795480 1.5094013850
Zn 8.5280314680 1.3071799000 3.7735034500
Zn 8.5280314680 6.5358996110 3.7735034500
Zn 8.5282171944 -0.0000137934 6.0774321744
Zn 8.5281738077 5.2286143460 6.0776528160
Zn 8.5534872611 -1.1958354926 8.4777855535
Zn 8.4315026603 3.5454877887 8.4783866912
C 3.9205570816 1.4751461487 10.7622469397
C 2.8547506582 0.9344701798 12.9881968211
C 4.9410484748 2.0517175716 11.4370045293
C 3.7713229135 1.4617541374 13.8086554871
C 5.0773540122 2.1664222783 13.0749343506
C 5.7976129588 2.5145794563 10.6591379543
C 3.8906482053 1.5616016203 15.3489717896
N 2.9928614339 1.0705546797 15.7742058019
N 6.0901355849 2.7465648621 13.9130727031
H 4.8312443127 2.0865713293 15.7169444789
H 6.2095940293 2.8356095281 15.0633753130
H 6.8683153584 3.1529058476 12.9469951610
H 4.9628190653 2.1985107478 17.5269145923
H 4.9503679774 2.2033075807 18.0779552057
H 6.7032707485 3.1205442731 15.6359703888
