79
Frame from Quantum Espresso Output
Zn 1.2182902100 1.3071799380 0.7547006810
Zn 1.2182902100 6.5358996490 0.7547006810
Zn 1.2182902100 0.0000000010 3.0188027470
Zn 1.2182902100 5.2287197120 3.0188027470
Zn 1.2185726075 -1.3073880994 5.6729282852
Zn 1.2186851431 3.9215451479 5.6720151579
Zn 1.2927045643 -2.3611191108 8.3135854815
Zn 1.2182912521 2.6138876577 8.3112090582
Zn 1.2182902100 3.9215397940 0.7547006810
Zn 1.2182902100 9.1502595050 0.7547006810
Zn 1.2182902100 2.6143598570 3.0188027470
Zn 1.2182902100 7.8430795680 3.0188027470
Zn 1.2186883199 1.3072854268 5.6723424169
Zn 1.2185625130 6.5357747424 5.6727099542
Zn 1.2183938771 0.0002649565 8.3122345995
Zn 1.2840293675 4.9757936526 8.3115143812
Zn 6.0914510490 1.3071799380 0.7547006810
Zn 6.0914510490 6.5358996490 0.7547006810
Zn 6.0914510490 0.0000000010 3.0188027470
Zn 6.0914510490 5.2287197120 3.0188027470
Zn 6.0911338514 -1.3072242637 5.6748546444
Zn 6.0910857638 3.9213990650 5.6741431289
Zn 6.0158040640 -2.3610752350 8.3135140742
Zn 6.0908069630 2.6141879475 8.3109727310
Zn 6.0914510490 3.9215397940 0.7547006810
Zn 6.0914510490 9.1502595050 0.7547006810
Zn 6.0914510490 2.6143598570 3.0188027470
Zn 6.0914510490 7.8430795680 3.0188027470
Zn 6.0911030401 1.3076064174 5.6744400348
Zn 6.0911314819 6.5354481156 5.6746346244
Zn 6.0907362130 0.0002962738 8.3121724100
Zn 6.0161169420 4.9757262498 8.3118539263
Zn 3.6548706290 -0.0000000190 1.5094013850
Zn 3.6548706290 5.2287196920 1.5094013850
Zn 3.6548706290 -1.3071799560 3.7735034500
Zn 3.6548706290 3.9215397550 3.7735034500
Zn 3.6546710580 -2.6147701593 6.0778389286
Zn 3.7961298288 2.8289533179 4.2753432298
Zn 3.7314142625 -3.6696514717 8.4693455582
Zn 3.6561396108 1.3071840229 8.4669852284
Zn 3.6548706290 2.6143598370 1.5094013850
Zn 3.6548706290 7.8430795480 1.5094013850
Zn 3.6548706290 1.3071799000 3.7735034500
Zn 3.6548706290 6.5358996110 3.7735034500
Zn 3.6547437702 0.0001669099 6.0773502731
Zn 3.6547864959 5.2284186199 6.0775758154
Zn 3.6560223294 -1.3067850725 8.4676908611
Zn 3.7309102335 3.6689305907 8.4672343644
Zn 8.5280314680 -0.0000000190 1.5094013850
Zn 8.5280314680 5.2287196920 1.5094013850
Zn 8.5280314680 -1.3071799560 3.7735034500
Zn 8.5280314680 3.9215397550 3.7735034500
Zn 8.5281647867 -2.6147587956 6.0779299812
Zn 8.5281732184 2.6146472247 6.0772010317
Zn 8.4614041448 -3.6700494008 8.4714678049
Zn 8.5273521035 1.3068460741 8.4680115540
Zn 8.5280314680 2.6143598370 1.5094013850
Zn 8.5280314680 7.8430795480 1.5094013850
Zn 8.5280314680 1.3071799000 3.7735034500
Zn 8.5280314680 6.5358996110 3.7735034500
Zn 8.5282171944 -0.0000137934 6.0774321744
Zn 8.5281738077 5.2286143460 6.0776528160
Zn 8.5276316717 -1.3067553076 8.4684089120
Zn 8.4528424481 3.6687313266 8.4689238925
C 4.9134247141 1.3814732333 17.0862439666
C 5.0871317486 1.5551955200 15.6802206303
C 5.1985586495 0.4413937791 14.8244235197
C 5.1509930192 2.8451224867 15.1159645359
C 5.3196241483 3.0157821825 13.7503030685
C 5.3671627147 0.6085905068 13.4582730388
C 5.4317577080 1.9006789433 12.8887600781
N 4.7715117028 1.2390677179 18.2371543923
N 5.5980074778 2.0671188510 11.5434302643
H 5.6429449216 2.9902435894 11.1350611653
H 5.6770243287 1.2707596620 10.9264593243
H 5.1510638423 -0.5647937008 15.2460368596
H 5.0662759487 3.7186438187 15.7654687395
H 5.3666489150 4.0249022812 13.3319424588
H 5.4516376458 -0.2687976973 12.8112541959
79
Frame from Quantum Espresso Output
Zn 1.2182902100 1.3071799380 0.7547006810
Zn 1.2182902100 6.5358996490 0.7547006810
Zn 1.2182902100 0.0000000010 3.0188027470
Zn 1.2182902100 5.2287197120 3.0188027470
Zn 1.2185726075 -1.3073880994 5.6729282852
Zn 1.2186851431 3.9215451479 5.6720151579
Zn 1.2982855770 -2.3340366295 8.3229754105
Zn 1.2119608786 2.5883805838 8.3045705638
Zn 1.2182902100 3.9215397940 0.7547006810
Zn 1.2182902100 9.1502595050 0.7547006810
Zn 1.2182902100 2.6143598570 3.0188027470
Zn 1.2182902100 7.8430795680 3.0188027470
Zn 1.2186883199 1.3072854268 5.6723424169
Zn 1.2185625130 6.5357747424 5.6727099542
Zn 1.2152537603 0.0245566659 8.3097411018
Zn 1.1727438829 4.9113265635 8.3048819957
Zn 6.0914510490 1.3071799380 0.7547006810
Zn 6.0914510490 6.5358996490 0.7547006810
Zn 6.0914510490 0.0000000010 3.0188027470
Zn 6.0914510490 5.2287197120 3.0188027470
Zn 6.0911338514 -1.3072242637 5.6748546444
Zn 6.0910857638 3.9213990650 5.6741431289
Zn 6.0027786879 -2.3301930431 8.3269879605
Zn 6.0893391026 2.5871900208 8.3037789122
Zn 6.0914510490 3.9215397940 0.7547006810
Zn 6.0914510490 9.1502595050 0.7547006810
Zn 6.0914510490 2.6143598570 3.0188027470
Zn 6.0914510490 7.8430795680 3.0188027470
Zn 6.0911030401 1.3076064174 5.6744400348
Zn 6.0911314819 6.5354481156 5.6746346244
Zn 6.0883243094 0.0224888812 8.3094445333
Zn 6.0025167451 4.9513350780 8.3141530512
Zn 3.6548706290 -0.0000000190 1.5094013850
Zn 3.6548706290 5.2287196920 1.5094013850
Zn 3.6548706290 -1.3071799560 3.7735034500
Zn 3.6548706290 3.9215397550 3.7735034500
Zn 3.6546710580 -2.6147701593 6.0778389286
Zn 3.7961298288 2.8289533179 4.2753432298
Zn 3.7500981798 -3.6468174373 8.4935403278
Zn 3.6568594377 1.2889979464 8.4630573167
Zn 3.6548706290 2.6143598370 1.5094013850
Zn 3.6548706290 7.8430795480 1.5094013850
Zn 3.6548706290 1.3071799000 3.7735034500
Zn 3.6548706290 6.5358996110 3.7735034500
Zn 3.6547437702 0.0001669099 6.0773502731
Zn 3.6547864959 5.2284186199 6.0775758154
Zn 3.6572063427 -1.2779009933 8.4728976370
Zn 3.7406620881 3.6326298102 8.4712773771
Zn 8.5280314680 -0.0000000190 1.5094013850
Zn 8.5280314680 5.2287196920 1.5094013850
Zn 8.5280314680 -1.3071799560 3.7735034500
Zn 8.5280314680 3.9215397550 3.7735034500
Zn 8.5281647867 -2.6147587956 6.0779299812
Zn 8.5281732184 2.6146472247 6.0772010317
Zn 8.5690096730 -3.6071909596 8.5046506274
Zn 8.5319316645 1.2865182791 8.4640487357
Zn 8.5280314680 2.6143598370 1.5094013850
Zn 8.5280314680 7.8430795480 1.5094013850
Zn 8.5280314680 1.3071799000 3.7735034500
Zn 8.5280314680 6.5358996110 3.7735034500
Zn 8.5282171944 -0.0000137934 6.0774321744
Zn 8.5281738077 5.2286143460 6.0776528160
Zn 8.5345754598 -1.2802752265 8.4690411892
Zn 8.4476604829 3.6411855609 8.4741062061
C 4.9138542531 1.3830985139 17.0736241239
C 5.0870194318 1.5539869309 15.6806317938
C 5.1989473605 0.4410722413 14.8220571132
C 5.1515683628 2.8471235067 15.1138174715
C 5.3201256932 3.0155810449 13.7503337993
C 5.3665181853 0.6095426280 13.4577438526
C 5.4318679376 1.8998231842 12.8914424113
N 4.7699320963 1.2375891197 18.2498001386
N 5.5967140147 2.0663875885 11.5518543288
H 5.6435795981 2.9947307251 11.1320294321
H 5.6779607918 1.2671790460 10.9220848718
H 5.1510318198 -0.5659435362 15.2466562801
H 5.0661722678 3.7197319494 15.7663945549
H 5.3667194195 4.0262188072 13.3316217456
H 5.4517465470 -0.2700203379 12.8105278038
79
Frame from Quantum Espresso Output
Zn 1.2182902100 1.3071799380 0.7547006810
Zn 1.2182902100 6.5358996490 0.7547006810
Zn 1.2182902100 0.0000000010 3.0188027470
Zn 1.2182902100 5.2287197120 3.0188027470
Zn 1.2185726075 -1.3073880994 5.6729282852
Zn 1.2186851431 3.9215451479 5.6720151579
Zn 1.3103870807 -2.2836611752 8.3412889190
Zn 1.2029001042 2.5394220510 8.2922864120
Zn 1.2182902100 3.9215397940 0.7547006810
Zn 1.2182902100 9.1502595050 0.7547006810
Zn 1.2182902100 2.6143598570 3.0188027470
Zn 1.2182902100 7.8430795680 3.0188027470
Zn 1.2186883199 1.3072854268 5.6723424169
Zn 1.2185625130 6.5357747424 5.6727099542
Zn 1.2090503764 0.0662811851 8.3048531167
Zn 1.0588923218 4.8329639495 8.2972389740
Zn 6.0914510490 1.3071799380 0.7547006810
Zn 6.0914510490 6.5358996490 0.7547006810
Zn 6.0914510490 0.0000000010 3.0188027470
Zn 6.0914510490 5.2287197120 3.0188027470
Zn 6.0911338514 -1.3072242637 5.6748546444
Zn 6.0910857638 3.9213990650 5.6741431289
Zn 6.0077850384 -2.2880321294 8.3541187761
Zn 6.0881594812 2.5411115685 8.2902191049
Zn 6.0914510490 3.9215397940 0.7547006810
Zn 6.0914510490 9.1502595050 0.7547006810
Zn 6.0914510490 2.6143598570 3.0188027470
Zn 6.0914510490 7.8430795680 3.0188027470
Zn 6.0911030401 1.3076064174 5.6744400348
Zn 6.0911314819 6.5354481156 5.6746346244
Zn 6.0846296468 0.0602855716 8.3040511703
Zn 5.9804840279 4.9037131491 8.3173319770
Zn 3.6548706290 -0.0000000190 1.5094013850
Zn 3.6548706290 5.2287196920 1.5094013850
Zn 3.6548706290 -1.3071799560 3.7735034500
Zn 3.6548706290 3.9215397550 3.7735034500
Zn 3.6546710580 -2.6147701593 6.0778389286
Zn 3.7961298288 2.8289533179 4.2753432298
Zn 3.7808418933 -3.6026182806 8.5375900328
Zn 3.6573303146 1.2565719210 8.4561065393
Zn 3.6548706290 2.6143598370 1.5094013850
Zn 3.6548706290 7.8430795480 1.5094013850
Zn 3.6548706290 1.3071799000 3.7735034500
Zn 3.6548706290 6.5358996110 3.7735034500
Zn 3.6547437702 0.0001669099 6.0773502731
Zn 3.6547864959 5.2284186199 6.0775758154
Zn 3.6577418985 -1.2289840410 8.4819961534
Zn 3.7284320717 3.5888610849 8.4737002362
Zn 8.5280314680 -0.0000000190 1.5094013850
Zn 8.5280314680 5.2287196920 1.5094013850
Zn 8.5280314680 -1.3071799560 3.7735034500
Zn 8.5280314680 3.9215397550 3.7735034500
Zn 8.5281647867 -2.6147587956 6.0779299812
Zn 8.5281732184 2.6146472247 6.0772010317
Zn 8.6791920832 -3.5363401381 8.5590913247
Zn 8.5412441652 1.2513231865 8.4565762873
Zn 8.5280314680 2.6143598370 1.5094013850
Zn 8.5280314680 7.8430795480 1.5094013850
Zn 8.5280314680 1.3071799000 3.7735034500
Zn 8.5280314680 6.5358996110 3.7735034500
Zn 8.5282171944 -0.0000137934 6.0774321744
Zn 8.5281738077 5.2286143460 6.0776528160
Zn 8.5445722600 -1.2300348022 8.4699262875
Zn 8.4364707242 3.5924483300 8.4803248581
C 4.9037696049 1.3746497058 17.1390442423
C 5.0882671190 1.5557421855 15.6696354535
C 5.1991183385 0.4386172349 14.8205580996
C 5.1521161325 2.8488895995 15.1133321782
C 5.3210522953 3.0186955537 13.7508029738
C 5.3657108116 0.6063849692 13.4566611793
C 5.4317135911 1.8994062949 12.8983128529
N 4.7765058826 1.2446301013 18.1949811162
N 5.5971355158 2.0669463388 11.5451962158
H 5.6441007534 2.9925905273 11.1328377597
H 5.6785018146 1.2698775366 10.9231535447
H 5.1510937056 -0.5664520941 15.2468085558
H 5.0661100219 3.7209648106 15.7672833049
H 5.3668965754 4.0270792864 13.3312776688
H 5.4517917123 -0.2704589788 12.8100562091
79
Frame from Quantum Espresso Output
Zn 1.2182902100 1.3071799380 0.7547006810
Zn 1.2182902100 6.5358996490 0.7547006810
Zn 1.2182902100 0.0000000010 3.0188027470
Zn 1.2182902100 5.2287197120 3.0188027470
Zn 1.2185726075 -1.3073880994 5.6729282852
Zn 1.2186851431 3.9215451479 5.6720151579
Zn 1.3524629440 -2.1142886503 8.4086928188
Zn 1.1738284201 2.3637936229 8.2477871092
Zn 1.2182902100 3.9215397940 0.7547006810
Zn 1.2182902100 9.1502595050 0.7547006810
Zn 1.2182902100 2.6143598570 3.0188027470
Zn 1.2182902100 7.8430795680 3.0188027470
Zn 1.2186883199 1.3072854268 5.6723424169
Zn 1.2185625130 6.5357747424 5.6727099542
Zn 1.1850962740 0.2095753267 8.2867204277
Zn 0.7375794662 4.5925311360 8.2734836094
Zn 6.0914510490 1.3071799380 0.7547006810
Zn 6.0914510490 6.5358996490 0.7547006810
Zn 6.0914510490 0.0000000010 3.0188027470
Zn 6.0914510490 5.2287197120 3.0188027470
Zn 6.0911338514 -1.3072242637 5.6748546444
Zn 6.0910857638 3.9213990650 5.6741431289
Zn 6.0558372338 -2.1502536701 8.4549757229
Zn 6.0852133322 2.3828627281 8.2407106440
Zn 6.0914510490 3.9215397940 0.7547006810
Zn 6.0914510490 9.1502595050 0.7547006810
Zn 6.0914510490 2.6143598570 3.0188027470
Zn 6.0914510490 7.8430795680 3.0188027470
Zn 6.0911030401 1.3076064174 5.6744400348
Zn 6.0911314819 6.5354481156 5.6746346244
Zn 6.0723209383 0.1889681735 8.2839862929
Zn 5.9101613972 4.7402174123 8.3271098299
Zn 3.6548706290 -0.0000000190 1.5094013850
Zn 3.6548706290 5.2287196920 1.5094013850
Zn 3.6548706290 -1.3071799560 3.7735034500
Zn 3.6548706290 3.9215397550 3.7735034500
Zn 3.6546710580 -2.6147701593 6.0778389286
Zn 3.7961298288 2.8289533179 4.2753432298
Zn 3.8810047018 -3.4495922479 8.6947228446
Zn 3.6581407024 1.1443138440 8.4317857219
Zn 3.6548706290 2.6143598370 1.5094013850
Zn 3.6548706290 7.8430795480 1.5094013850
Zn 3.6548706290 1.3071799000 3.7735034500
Zn 3.6548706290 6.5358996110 3.7735034500
Zn 3.6547437702 0.0001669099 6.0773502731
Zn 3.6547864959 5.2284186199 6.0775758154
Zn 3.6579338227 -1.0616941329 8.5141284399
Zn 3.6548981332 3.4493493125 8.4761680088
Zn 8.5280314680 -0.0000000190 1.5094013850
Zn 8.5280314680 5.2287196920 1.5094013850
Zn 8.5280314680 -1.3071799560 3.7735034500
Zn 8.5280314680 3.9215397550 3.7735034500
Zn 8.5281647867 -2.6147587956 6.0779299812
Zn 8.5281732184 2.6146472247 6.0772010317
Zn 8.9902466046 -3.3197065317 8.7475938934
Zn 8.5769081117 1.1294140362 8.4294259191
Zn 8.5280314680 2.6143598370 1.5094013850
Zn 8.5280314680 7.8430795480 1.5094013850
Zn 8.5280314680 1.3071799000 3.7735034500
Zn 8.5280314680 6.5358996110 3.7735034500
Zn 8.5282171944 -0.0000137934 6.0774321744
Zn 8.5281738077 5.2286143460 6.0776528160
Zn 8.5769708829 -1.0516560559 8.4724137569
Zn 8.3971857483 3.4313447850 8.4987483902
C 4.9128697133 1.3894764138 17.0084937447
C 5.0885912918 1.5591428023 15.6617402613
C 5.1984697688 0.4313352971 14.8225473511
C 5.1530384803 2.8516328199 15.1193693141
C 5.3246913671 3.0296612432 13.7506561467
C 5.3634716458 0.5950587966 13.4522763969
C 5.4322355988 1.8995709683 12.9131072605
N 4.7600192279 1.2291969662 18.3289036584
N 5.5986268639 2.0693920688 11.5209961034
H 5.6458619190 2.9814838401 11.1378550838
H 5.6800733975 1.2822202561 10.9299381788
H 5.1513242552 -0.5679318243 15.2468750731
H 5.0659700488 3.7246340310 15.7697076154
H 5.3676913444 4.0300461749 13.3295126054
H 5.4519083962 -0.2718669951 12.8076513236
79
Frame from Quantum Espresso Output
Zn 1.2182902100 1.3071799380 0.7547006810
Zn 1.2182902100 6.5358996490 0.7547006810
Zn 1.2182902100 0.0000000010 3.0188027470
Zn 1.2182902100 5.2287197120 3.0188027470
Zn 1.2185726075 -1.3073880994 5.6729282852
Zn 1.2186851431 3.9215451479 5.6720151579
Zn 1.3468793540 -2.1424278903 8.4064716651
Zn 1.1799905290 2.4056142210 8.2479122070
Zn 1.2182902100 3.9215397940 0.7547006810
Zn 1.2182902100 9.1502595050 0.7547006810
Zn 1.2182902100 2.6143598570 3.0188027470
Zn 1.2182902100 7.8430795680 3.0188027470
Zn 1.2186883199 1.3072854268 5.6723424169
Zn 1.2185625130 6.5357747424 5.6727099542
Zn 1.1819897111 0.1654476195 8.2870735886
Zn 0.7899702767 4.6218933647 8.2749191884
Zn 6.0914510490 1.3071799380 0.7547006810
Zn 6.0914510490 6.5358996490 0.7547006810
Zn 6.0914510490 0.0000000010 3.0188027470
Zn 6.0914510490 5.2287197120 3.0188027470
Zn 6.0911338514 -1.3072242637 5.6748546444
Zn 6.0910857638 3.9213990650 5.6741431289
Zn 6.0607182275 -2.1675411661 8.4506203193
Zn 6.0855039404 2.4237586476 8.2408077086
Zn 6.0914510490 3.9215397940 0.7547006810
Zn 6.0914510490 9.1502595050 0.7547006810
Zn 6.0914510490 2.6143598570 3.0188027470
Zn 6.0914510490 7.8430795680 3.0188027470
Zn 6.0911030401 1.3076064174 5.6744400348
Zn 6.0911314819 6.5354481156 5.6746346244
Zn 6.0737270339 0.1499562931 8.2842136558
Zn 5.9296949056 4.7565718743 8.3249555320
Zn 3.6548706290 -0.0000000190 1.5094013850
Zn 3.6548706290 5.2287196920 1.5094013850
Zn 3.6548706290 -1.3071799560 3.7735034500
Zn 3.6548706290 3.9215397550 3.7735034500
Zn 3.6546710580 -2.6147701593 6.0778389286
Zn 3.7961298288 2.8289533179 4.2753432298
Zn 3.8539895337 -3.4603043167 8.6835261549
Zn 3.6573046994 1.1773139936 8.4336042335
Zn 3.6548706290 2.6143598370 1.5094013850
Zn 3.6548706290 7.8430795480 1.5094013850
Zn 3.6548706290 1.3071799000 3.7735034500
Zn 3.6548706290 6.5358996110 3.7735034500
Zn 3.6547437702 0.0001669099 6.0773502731
Zn 3.6547864959 5.2284186199 6.0775758154
Zn 3.6575082491 -1.1034225672 8.5135562220
Zn 3.6534073654 3.4684476416 8.4744562374
Zn 8.5280314680 -0.0000000190 1.5094013850
Zn 8.5280314680 5.2287196920 1.5094013850
Zn 8.5280314680 -1.3071799560 3.7735034500
Zn 8.5280314680 3.9215397550 3.7735034500
Zn 8.5281647867 -2.6147587956 6.0779299812
Zn 8.5281732184 2.6146472247 6.0772010317
Zn 8.9405376542 -3.3385693577 8.7309005344
Zn 8.5806337188 1.1653157807 8.4300853021
Zn 8.5280314680 2.6143598370 1.5094013850
Zn 8.5280314680 7.8430795480 1.5094013850
Zn 8.5280314680 1.3071799000 3.7735034500
Zn 8.5280314680 6.5358996110 3.7735034500
Zn 8.5282171944 -0.0000137934 6.0774321744
Zn 8.5281738077 5.2286143460 6.0776528160
Zn 8.5717561467 -1.0950131668 8.4722886976
Zn 8.4025953170 3.4623458288 8.4988453017
C 4.9090810334 1.3839209605 17.0585867769
C 5.0884906736 1.5549183614 15.6613519463
C 5.1991218742 0.4339246822 14.8115359008
C 5.1542442631 2.8595010532 15.1087884631
C 5.3239016490 3.0198898929 13.7558103699
C 5.3633112250 0.6050018799 13.4612529711
C 5.4360733574 1.9016149920 12.8783903575
N 4.7630875099 1.2330691326 18.2934188870
N 5.5914619282 2.0657546746 11.5780870665
H 5.6473223518 3.0005034601 11.1273580204
H 5.6821080727 1.2638794979 10.9142951352
H 5.1508959419 -0.5707547279 15.2493813228
H 5.0658128160 3.7237940566 15.7708447966
H 5.3681041673 4.0338504476 13.3275739781
H 5.4522198900 -0.2761542918 12.8035679187
79
Frame from Quantum Espresso Output
Zn 1.2182902100 1.3071799380 0.7547006810
Zn 1.2182902100 6.5358996490 0.7547006810
Zn 1.2182902100 0.0000000010 3.0188027470
Zn 1.2182902100 5.2287197120 3.0188027470
Zn 1.2185726075 -1.3073880994 5.6729282852
Zn 1.2186851431 3.9215451479 5.6720151579
Zn 1.3427144766 -2.1704471377 8.4120491159
Zn 1.1878512472 2.4386856687 8.2421628965
Zn 1.2182902100 3.9215397940 0.7547006810
Zn 1.2182902100 9.1502595050 0.7547006810
Zn 1.2182902100 2.6143598570 3.0188027470
Zn 1.2182902100 7.8430795680 3.0188027470
Zn 1.2186883199 1.3072854268 5.6723424169
Zn 1.2185625130 6.5357747424 5.6727099542
Zn 1.1728965189 0.1218752775 8.2847526582
Zn 0.8367870477 4.6461358827 8.2751952019
Zn 6.0914510490 1.3071799380 0.7547006810
Zn 6.0914510490 6.5358996490 0.7547006810
Zn 6.0914510490 0.0000000010 3.0188027470
Zn 6.0914510490 5.2287197120 3.0188027470
Zn 6.0911338514 -1.3072242637 5.6748546444
Zn 6.0910857638 3.9213990650 5.6741431289
Zn 6.0729806315 -2.1819294601 8.4570322711
Zn 6.0851439782 2.4617115411 8.2345189350
Zn 6.0914510490 3.9215397940 0.7547006810
Zn 6.0914510490 9.1502595050 0.7547006810
Zn 6.0914510490 2.6143598570 3.0188027470
Zn 6.0914510490 7.8430795680 3.0188027470
Zn 6.0911030401 1.3076064174 5.6744400348
Zn 6.0911314819 6.5354481156 5.6746346244
Zn 6.0744808976 0.1118165255 8.2817341799
Zn 5.9523168582 4.7653129500 8.3231352207
Zn 3.6548706290 -0.0000000190 1.5094013850
Zn 3.6548706290 5.2287196920 1.5094013850
Zn 3.6548706290 -1.3071799560 3.7735034500
Zn 3.6548706290 3.9215397550 3.7735034500
Zn 3.6546710580 -2.6147701593 6.0778389286
Zn 3.7961298288 2.8289533179 4.2753432298
Zn 3.8224704489 -3.4603403251 8.6836097899
Zn 3.6559836114 1.2088788636 8.4335013212
Zn 3.6548706290 2.6143598370 1.5094013850
Zn 3.6548706290 7.8430795480 1.5094013850
Zn 3.6548706290 1.3071799000 3.7735034500
Zn 3.6548706290 6.5358996110 3.7735034500
Zn 3.6547437702 0.0001669099 6.0773502731
Zn 3.6547864959 5.2284186199 6.0775758154
Zn 3.6569374017 -1.1431160687 8.5160048207
Zn 3.6438162522 3.4860019480 8.4721152786
Zn 8.5280314680 -0.0000000190 1.5094013850
Zn 8.5280314680 5.2287196920 1.5094013850
Zn 8.5280314680 -1.3071799560 3.7735034500
Zn 8.5280314680 3.9215397550 3.7735034500
Zn 8.5281647867 -2.6147587956 6.0779299812
Zn 8.5281732184 2.6146472247 6.0772010317
Zn 8.8966282789 -3.3475605556 8.7257512940
Zn 8.5925047446 1.2008973834 8.4276396622
Zn 8.5280314680 2.6143598370 1.5094013850
Zn 8.5280314680 7.8430795480 1.5094013850
Zn 8.5280314680 1.3071799000 3.7735034500
Zn 8.5280314680 6.5358996110 3.7735034500
Zn 8.5282171944 -0.0000137934 6.0774321744
Zn 8.5281738077 5.2286143460 6.0776528160
Zn 8.5662083354 -1.1326078204 8.4713669797
Zn 8.4069295251 3.4950707635 8.5014919489
C 4.9041679801 1.3775343991 17.1114322819
C 5.0854304548 1.5541107767 15.6833797793
C 5.1973076374 0.4361789022 14.8182989425
C 5.1538433286 2.8530451617 15.1112597739
C 5.3262507656 3.0198474582 13.7385024962
C 5.3669405790 0.6101760948 13.4412103359
C 5.4302925199 1.8966824445 12.9164623016
N 4.7687973090 1.2400984589 18.2336141829
N 5.5969615821 2.0690697048 11.5343736430
H 5.6471300257 2.9947173681 11.1328795410
H 5.6809712049 1.2703874654 10.9229099791
H 5.1507132658 -0.5700599834 15.2488553530
H 5.0658037180 3.7241208407 15.7712974050
H 5.3685610728 4.0320617900 13.3280382840
H 5.4517516167 -0.2743496958 12.8043644442
