64
Final Frame from Quantum Espresso Output
Zn -0.0000000130 1.5094013740 1.2182902100
Zn 5.2287196980 1.5094013740 1.2182902100
Zn -0.0001147904 1.5043101809 6.1799357997
Zn 5.2288454070 1.5044302250 6.1804331964
Zn -1.3071799410 3.7735034240 1.2182902100
Zn 3.9215397700 3.7735034240 1.2182902100
Zn -1.3072634763 3.7691627981 6.1812707211
Zn 3.9216250935 3.7692349180 6.1813276933
Zn -2.6143598690 6.0376054730 1.2182902100
Zn 2.6143598420 6.0376054730 1.2182902100
Zn -2.6144295260 6.0323008964 6.1819336684
Zn 2.6144297942 6.0323575701 6.1819188219
Zn -3.9215397970 8.3017075230 1.2182902100
Zn 1.3071799140 8.3017075230 1.2182902100
Zn -3.9216413207 8.2955810258 6.1806708067
Zn 1.3072832678 8.2956657302 6.1812427741
Zn 2.6143598430 1.5094013740 1.2182902100
Zn 7.8430795540 1.5094013740 1.2182902100
Zn 2.6144773882 1.5044848069 6.1798904358
Zn 7.8429553627 1.5042671993 6.1804993318
Zn 1.3071799150 3.7735034240 1.2182902100
Zn 6.5358996260 3.7735034240 1.2182902100
Zn 1.3072696198 3.7692531159 6.1812255746
Zn 6.5358050752 3.7691401905 6.1814179712
Zn -0.0000000130 6.0376054730 1.2182902100
Zn 5.2287196980 6.0376054730 1.2182902100
Zn 0.0000839467 6.0323508604 6.1820010370
Zn 5.2286363875 6.0323154820 6.1818367801
Zn -1.3071799410 8.3017075230 1.2182902100
Zn 3.9215397700 8.3017075230 1.2182902100
Zn -1.3070616409 8.2956708503 6.1808540142
Zn 3.9214341010 8.2955745820 6.1810867797
Zn 1.3071799410 0.7547006760 3.6548706290
Zn 6.5358996520 0.7547006760 3.6548706290
Zn 1.3072058794 0.7539874532 8.7046615890
Zn 6.5358795989 0.7539642470 8.7052265109
Zn 0.0000000130 3.0188027250 3.6548706290
Zn 5.2287197240 3.0188027250 3.6548706290
Zn 0.0000501424 3.0186237406 8.7053225205
Zn 5.2286697887 3.0186270197 8.7055570344
Zn -1.3071799150 5.2829047750 3.6548706290
Zn 3.9215397960 5.2829047750 3.6548706290
Zn -1.3071733423 5.2826412043 8.7073702738
Zn 3.9215228801 5.2826186608 8.7074835582
Zn -2.6143598430 7.5470068250 3.6548706290
Zn 2.6143598680 7.5470068250 3.6548706290
Zn -2.6143832609 7.5462581101 8.7069606987
Zn 2.6143924840 7.5461903022 8.7073015544
Zn 3.9215397970 0.7547006760 3.6548706290
Zn 9.1502595080 0.7547006760 3.6548706290
Zn 3.9215662330 0.7540325071 8.7049022335
Zn 9.1502429406 0.7539208008 8.7050385708
Zn 2.6143598690 3.0188027250 3.6548706290
Zn 7.8430795800 3.0188027250 3.6548706290
Zn 2.6144385595 3.0186388984 8.7053835466
Zn 7.8429902714 3.0186213515 8.7055169170
Zn 1.3071799410 5.2829047750 3.6548706290
Zn 6.5358996520 5.2829047750 3.6548706290
Zn 1.3072823210 5.2826221253 8.7074677416
Zn 6.5357995862 5.2826346883 8.7074092751
Zn 0.0000000130 7.5470068250 3.6548706290
Zn 5.2287197240 7.5470068250 3.6548706290
Zn 0.0000374924 7.5462466704 8.7071542322
Zn 5.2286839433 7.5462082058 8.7071156931
