64
Final Frame from Quantum Espresso Output
Zn -1.0735556040 1.0841422490 1.1977635440
Zn -2.3094850350 6.1646922450 1.1977635440
Zn -5.3677775260 0.0395003770 3.2510723350
Zn -6.6037069570 5.1200503720 3.2510723350
Zn -9.6163022723 -0.9919085920 5.5605048763
Zn -10.8535548442 4.0925249643 5.5620927280
Zn -13.6111617745 -1.9582527287 7.6314445365
Zn -14.8495596181 3.1230168563 7.6313363699
Zn -1.6915203190 3.6244172470 1.1977635440
Zn -2.9274497510 8.7049672430 1.1977635440
Zn -5.9857422410 2.5797753750 3.2510723350
Zn -7.2216716720 7.6603253700 3.2510723350
Zn -10.2349566017 1.5506500553 5.5632532360
Zn -11.4707408179 6.6305224692 5.5594702527
Zn -14.2334116551 0.5814743284 7.6334330694
Zn -15.4632501286 5.6637848463 7.6293751292
Zn 4.4565957630 1.0841422490 1.1977635440
Zn 3.2206663320 6.1646922450 1.1977635440
Zn 0.1623738410 0.0395003770 3.2510723350
Zn -1.0735555900 5.1200503720 3.2510723350
Zn -4.0797864146 -0.9891079950 5.5401227532
Zn -5.3106594217 4.0939228161 5.5384688195
Zn -8.0579058500 -1.9526575122 7.6297103371
Zn -9.2906077801 3.1299184376 7.6260834506
Zn 3.8386310480 3.6244172470 1.1977635440
Zn 2.6027016170 8.7049672430 1.1977635440
Zn -0.4555908740 2.5797753750 3.2510723350
Zn -1.6915203050 7.6603253700 3.2510723350
Zn -4.6940601463 1.5514467532 5.5384807506
Zn -5.9323520376 6.6338835046 5.5398596091
Zn -8.6728533537 0.5882669292 7.6255029833
Zn -9.9115974391 5.6694482535 7.6303487251
Zn 1.6915203330 0.4114908770 0.8555452480
Zn 0.4555909020 5.4920408730 0.8555452480
Zn -2.6027015890 -0.6331509950 2.9088540390
Zn -3.8386310200 4.4473990010 2.9088540390
Zn -6.8747704953 -1.6733351899 5.0132837981
Zn -8.1105641607 3.4069451061 5.0138983460
Zn -11.0147747137 -2.6736050375 7.2856870371
Zn -12.2569967836 2.4066622858 7.2834446042
Zn 1.0735556170 2.9517658750 0.8555452480
Zn -0.1623738140 8.0323158710 0.8555452480
Zn -3.2206663040 1.9071240030 2.9088540390
Zn -4.4565957350 6.9876739990 2.9088540390
Zn -7.4915490788 0.8659240833 5.0145679830
Zn -8.7296895297 5.9482452371 5.0124034983
Zn -11.6375446579 -0.1346425021 7.2832026110
Zn -12.8701194535 4.9482390397 7.2859847131
Zn 7.2216717000 0.4114908770 0.8555452480
Zn 5.9857422690 5.4920408730 0.8555452480
Zn 2.9274497780 -0.6331509950 2.9088540390
Zn 1.6915203470 4.4473990010 2.9088540390
Zn -1.3336506619 -1.6721382256 5.0138912355
Zn -2.5700681363 3.4112959287 5.0152439844
Zn -5.4671206606 -2.6680557770 7.2707655525
Zn -6.6967388941 2.4125417057 7.2720673375
Zn 6.6037069850 2.9517658750 0.8555452480
Zn 5.3677775540 8.0323158710 0.8555452480
Zn 2.3094850630 1.9071240030 2.9088540390
Zn 1.0735556320 6.9876739990 2.9088540390
Zn -1.9543431163 0.8690750763 5.0158808702
Zn -3.1855396125 5.9505820060 5.0133643161
Zn -6.0815627921 -0.1284955971 7.2730957474
Zn -7.3182760727 4.9536206430 7.2697511733
