64
Frame from Quantum Espresso Output
Zn 1.2182902100 1.3071799380 0.7547006810
Zn 1.2182902100 6.5358996490 0.7547006810
Zn 1.2182902100 0.0000000010 3.0188027470
Zn 1.2182902100 5.2287197120 3.0188027470
Zn 1.2203616338 -1.3072886486 5.6635157463
Zn 1.2203628951 3.9215965491 5.6635199623
Zn 1.2204178466 -2.6143511438 8.3202320796
Zn 1.2204165118 2.6144921051 8.3202533298
Zn 1.2182902100 3.9215397940 0.7547006810
Zn 1.2182902100 9.1502595050 0.7547006810
Zn 1.2182902100 2.6143598570 3.0188027470
Zn 1.2182902100 7.8430795680 3.0188027470
Zn 1.2203576361 1.3071837696 5.6635240335
Zn 1.2203625873 6.5358433834 5.6635163127
Zn 1.2204161062 0.0000455494 8.3202642657
Zn 1.2204179249 5.2288153921 8.3202188089
Zn 6.0914510490 1.3071799380 0.7547006810
Zn 6.0914510490 6.5358996490 0.7547006810
Zn 6.0914510490 0.0000000010 3.0188027470
Zn 6.0914510490 5.2287197120 3.0188027470
Zn 6.0891945366 -1.3072942543 5.6616613688
Zn 6.0891937008 3.9215979077 5.6616659020
Zn 6.0893742553 -2.6143548600 8.3202056664
Zn 6.0893757176 2.6144956790 8.3202285663
Zn 6.0914510490 3.9215397940 0.7547006810
Zn 6.0914510490 9.1502595050 0.7547006810
Zn 6.0914510490 2.6143598570 3.0188027470
Zn 6.0914510490 7.8430795680 3.0188027470
Zn 6.0891978412 1.3071826544 5.6616647494
Zn 6.0891934504 6.5358403505 5.6616594135
Zn 6.0893767897 0.0000431668 8.3202416166
Zn 6.0893751040 5.2288175720 8.3201928093
Zn 3.6548706290 -0.0000000190 1.5094013850
Zn 3.6548706290 5.2287196920 1.5094013850
Zn 3.6548706290 -1.3071799560 3.7735034500
Zn 3.6548706290 3.9215397550 3.7735034500
Zn 3.6539988786 -2.6144133128 6.0742935747
Zn 3.6539950312 2.6144803213 6.0743033830
Zn 3.6538712287 -3.9214937670 8.4705328324
Zn 3.6538660601 1.3072799008 8.4705848660
Zn 3.6548706290 2.6143598370 1.5094013850
Zn 3.6548706290 7.8430795480 1.5094013850
Zn 3.6548706290 1.3071799000 3.7735034500
Zn 3.6548706290 6.5358996110 3.7735034500
Zn 3.6539953645 -0.0000090595 6.0743026180
Zn 3.6540018871 5.2287899359 6.0742959587
Zn 3.6538669924 -1.3071739855 8.4705663423
Zn 3.6538681201 3.9216785503 8.4705472576
Zn 8.5280314680 -0.0000000190 1.5094013850
Zn 8.5280314680 5.2287196920 1.5094013850
Zn 8.5280314680 -1.3071799560 3.7735034500
Zn 8.5280314680 3.9215397550 3.7735034500
Zn 8.5286176739 -2.6144150940 6.0731678620
Zn 8.5286196592 2.6144779091 6.0731820076
Zn 8.5291101551 -3.9214916681 8.4712893121
Zn 8.5291123376 1.3072816828 8.4713397562
Zn 8.5280314680 2.6143598370 1.5094013850
Zn 8.5280314680 7.8430795480 1.5094013850
Zn 8.5280314680 1.3071799000 3.7735034500
Zn 8.5280314680 6.5358996110 3.7735034500
Zn 8.5286201484 -0.0000047088 6.0731794109
Zn 8.5286169190 5.2287909601 6.0731679320
Zn 8.5291126270 -1.3071677085 8.4713264303
Zn 8.5291122974 3.9216804547 8.4713070649
64
Frame from Quantum Espresso Output
Zn 1.2182902100 1.3071799380 0.7547006810
Zn 1.2182902100 6.5358996490 0.7547006810
Zn 1.2182902100 0.0000000010 3.0188027470
Zn 1.2182902100 5.2287197120 3.0188027470
Zn 1.2202214826 -1.3070913688 5.6641448752
Zn 1.2202228862 3.9214003629 5.6641466507
Zn 1.2202798261 -2.6142158749 8.3200623595
Zn 1.2202773267 2.6143597007 8.3200346065
Zn 1.2182902100 3.9215397940 0.7547006810
Zn 1.2182902100 9.1502595050 0.7547006810
Zn 1.2182902100 2.6143598570 3.0188027470
Zn 1.2182902100 7.8430795680 3.0188027470
Zn 1.2202160186 1.3071122328 5.6641423743
Zn 1.2202230040 6.5359144446 5.6641533353
Zn 1.2202772084 0.0001043739 8.3200180465
Zn 1.2202812280 5.2287588934 8.3200751413
Zn 6.0914510490 1.3071799380 0.7547006810
Zn 6.0914510490 6.5358996490 0.7547006810
Zn 6.0914510490 0.0000000010 3.0188027470
Zn 6.0914510490 5.2287197120 3.0188027470
Zn 6.0893224042 -1.3070980169 5.6624755872
Zn 6.0893217281 3.9214027194 5.6624788828
Zn 6.0895047039 -2.6142210282 8.3200441469
Zn 6.0895078325 2.6143657677 8.3200177307
Zn 6.0914510490 3.9215397940 0.7547006810
Zn 6.0914510490 9.1502595050 0.7547006810
Zn 6.0914510490 2.6143598570 3.0188027470
Zn 6.0914510490 7.8430795680 3.0188027470
Zn 6.0893270646 1.3071114711 5.6624685081
Zn 6.0893212028 6.5359114813 5.6624853736
Zn 6.0895096633 0.0001006751 8.3200034384
Zn 6.0895047425 5.2287620287 8.3200575594
Zn 3.6548706290 -0.0000000190 1.5094013850
Zn 3.6548706290 5.2287196920 1.5094013850
Zn 3.6548706290 -1.3071799560 3.7735034500
Zn 3.6548706290 3.9215397550 3.7735034500
Zn 3.6539572705 -2.6142360747 6.0753317245
Zn 3.6539509074 2.6142925069 6.0753205482
Zn 3.6539175484 -3.9214475775 8.4706000600
Zn 3.6539087888 1.3072207992 8.4705404099
Zn 3.6548706290 2.6143598370 1.5094013850
Zn 3.6548706290 7.8430795480 1.5094013850
Zn 3.6548706290 1.3071799000 3.7735034500
Zn 3.6548706290 6.5358996110 3.7735034500
Zn 3.6539506816 0.0000706028 6.0753196753
Zn 3.6539609887 5.2287002091 6.0753351184
Zn 3.6539105118 -1.3070511003 8.4705568476
Zn 3.6539131520 3.9215419891 8.4705809152
Zn 8.5280314680 -0.0000000190 1.5094013850
Zn 8.5280314680 5.2287196920 1.5094013850
Zn 8.5280314680 -1.3071799560 3.7735034500
Zn 8.5280314680 3.9215397550 3.7735034500
Zn 8.5286722043 -2.6142411182 6.0743427931
Zn 8.5286755473 2.6142896559 6.0743379266
Zn 8.5290774767 -3.9214394860 8.4711815426
Zn 8.5290781636 1.3072195480 8.4711160569
Zn 8.5280314680 2.6143598370 1.5094013850
Zn 8.5280314680 7.8430795480 1.5094013850
Zn 8.5280314680 1.3071799000 3.7735034500
Zn 8.5280314680 6.5358996110 3.7735034500
Zn 8.5286753111 0.0000763659 6.0743340666
Zn 8.5286704571 5.2287031152 6.0743426004
Zn 8.5290768998 -1.3070402073 8.4711421884
Zn 8.5290781446 3.9215353136 8.4711625062
64
Frame from Quantum Espresso Output
Zn 1.2182902100 1.3071799380 0.7547006810
Zn 1.2182902100 6.5358996490 0.7547006810
Zn 1.2182902100 0.0000000010 3.0188027470
Zn 1.2182902100 5.2287197120 3.0188027470
Zn 1.2199278701 -1.3070566380 5.6652201345
Zn 1.2199302631 3.9213661794 5.6652315164
Zn 1.2199862424 -2.6142024193 8.3196105988
Zn 1.2199830521 2.6143504779 8.3195703712
Zn 1.2182902100 3.9215397940 0.7547006810
Zn 1.2182902100 9.1502595050 0.7547006810
Zn 1.2182902100 2.6143598570 3.0188027470
Zn 1.2182902100 7.8430795680 3.0188027470
Zn 1.2199211271 1.3071016736 5.6652120148
Zn 1.2199309547 6.5359248662 5.6652438979
Zn 1.2199822378 0.0001138955 8.3195474691
Zn 1.2199881279 5.2287535433 8.3196287887
Zn 6.0914510490 1.3071799380 0.7547006810
Zn 6.0914510490 6.5358996490 0.7547006810
Zn 6.0914510490 0.0000000010 3.0188027470
Zn 6.0914510490 5.2287197120 3.0188027470
Zn 6.0896042384 -1.3070620808 5.6637203262
Zn 6.0896032994 3.9213674177 5.6637356351
Zn 6.0897935347 -2.6142080029 8.3195161795
Zn 6.0897974667 2.6143574547 8.3194774866
Zn 6.0914510490 3.9215397940 0.7547006810
Zn 6.0914510490 9.1502595050 0.7547006810
Zn 6.0914510490 2.6143598570 3.0188027470
Zn 6.0914510490 7.8430795680 3.0188027470
Zn 6.0896099334 1.3070997991 5.6637057321
Zn 6.0896023456 6.5359225027 5.6637500476
Zn 6.0897997739 0.0001097333 8.3194569443
Zn 6.0897936556 5.2287576798 8.3195348726
Zn 3.6548706290 -0.0000000190 1.5094013850
Zn 3.6548706290 5.2287196920 1.5094013850
Zn 3.6548706290 -1.3071799560 3.7735034500
Zn 3.6548706290 3.9215397550 3.7735034500
Zn 3.6540081922 -2.6142202574 6.0768573591
Zn 3.6540007237 2.6142575894 6.0768338171
Zn 3.6540224476 -3.9214584639 8.4705692251
Zn 3.6540136727 1.3072064276 8.4704872742
Zn 3.6548706290 2.6143598370 1.5094013850
Zn 3.6548706290 7.8430795480 1.5094013850
Zn 3.6548706290 1.3071799000 3.7735034500
Zn 3.6548706290 6.5358996110 3.7735034500
Zn 3.6540007318 0.0000748360 6.0768247557
Zn 3.6540124666 5.2286766756 6.0768712032
Zn 3.6540159318 -1.3070524830 8.4705111456
Zn 3.6540176847 3.9215182556 8.4705430879
Zn 8.5280314680 -0.0000000190 1.5094013850
Zn 8.5280314680 5.2287196920 1.5094013850
Zn 8.5280314680 -1.3071799560 3.7735034500
Zn 8.5280314680 3.9215397550 3.7735034500
Zn 8.5286328620 -2.6142261945 6.0761167832
Zn 8.5286369264 2.6142545353 6.0761011622
Zn 8.5289811670 -3.9214496570 8.4708253710
Zn 8.5289830319 1.3072045634 8.4707358015
Zn 8.5280314680 2.6143598370 1.5094013850
Zn 8.5280314680 7.8430795480 1.5094013850
Zn 8.5280314680 1.3071799000 3.7735034500
Zn 8.5280314680 6.5358996110 3.7735034500
Zn 8.5286354884 0.0000807774 6.0760888610
Zn 8.5286302009 5.2286804837 6.0761254918
Zn 8.5289808766 -1.3070407272 8.4707716392
Zn 8.5289822061 3.9215101618 8.4707988917
64
Frame from Quantum Espresso Output
Zn 1.2182902100 1.3071799380 0.7547006810
Zn 1.2182902100 6.5358996490 0.7547006810
Zn 1.2182902100 0.0000000010 3.0188027470
Zn 1.2182902100 5.2287197120 3.0188027470
Zn 1.2194458781 -1.3069462041 5.6669737969
Zn 1.2194492237 3.9212550836 5.6669900483
Zn 1.2194945871 -2.6141229371 8.3189062037
Zn 1.2194919700 2.6142785635 8.3188343690
Zn 1.2182902100 3.9215397940 0.7547006810
Zn 1.2182902100 9.1502595050 0.7547006810
Zn 1.2182902100 2.6143598570 3.0188027470
Zn 1.2182902100 7.8430795680 3.0188027470
Zn 1.2194384909 1.3070592926 5.6669558108
Zn 1.2194504845 6.5359674283 5.6670120552
Zn 1.2194909715 0.0001486034 8.3187922738
Zn 1.2194966934 5.2287252927 8.3189424133
Zn 6.0914510490 1.3071799380 0.7547006810
Zn 6.0914510490 6.5358996490 0.7547006810
Zn 6.0914510490 0.0000000010 3.0188027470
Zn 6.0914510490 5.2287197120 3.0188027470
Zn 6.0900692225 -1.3069468934 5.6657394250
Zn 6.0900677674 3.9212520306 5.6657626937
Zn 6.0902803708 -2.6141265223 8.3186225133
Zn 6.0902840732 2.6142846929 8.3185521185
Zn 6.0914510490 3.9215397940 0.7547006810
Zn 6.0914510490 9.1502595050 0.7547006810
Zn 6.0914510490 2.6143598570 3.0188027470
Zn 6.0914510490 7.8430795680 3.0188027470
Zn 6.0900753685 1.3070555155 5.6657119629
Zn 6.0900664947 6.5359663092 5.6657910858
Zn 6.0902865856 0.0001448396 8.3185124348
Zn 6.0902805347 5.2287295629 8.3186601346
Zn 3.6548706290 -0.0000000190 1.5094013850
Zn 3.6548706290 5.2287196920 1.5094013850
Zn 3.6548706290 -1.3071799560 3.7735034500
Zn 3.6548706290 3.9215397550 3.7735034500
Zn 3.6541987589 -2.6141376416 6.0791368603
Zn 3.6541911535 2.6141416226 6.0790958502
Zn 3.6542670473 -3.9214481226 8.4706300910
Zn 3.6542573897 1.3071520074 8.4704848155
Zn 3.6548706290 2.6143598370 1.5094013850
Zn 3.6548706290 7.8430795480 1.5094013850
Zn 3.6548706290 1.3071799000 3.7735034500
Zn 3.6548706290 6.5358996110 3.7735034500
Zn 3.6541922110 0.0001031907 6.0790839306
Zn 3.6542034212 5.2286162600 6.0791568425
Zn 3.6542592416 -1.3069987961 8.4705287857
Zn 3.6542614320 3.9214198547 8.4705852071
Zn 8.5280314680 -0.0000000190 1.5094013850
Zn 8.5280314680 5.2287196920 1.5094013850
Zn 8.5280314680 -1.3071799560 3.7735034500
Zn 8.5280314680 3.9215397550 3.7735034500
Zn 8.5284603774 -2.6141459643 6.0787794033
Zn 8.5284635363 2.6141411920 6.0787453525
Zn 8.5287487863 -3.9214369899 8.4704000915
Zn 8.5287494644 1.3071483901 8.4702437198
Zn 8.5280314680 2.6143598370 1.5094013850
Zn 8.5280314680 7.8430795480 1.5094013850
Zn 8.5280314680 1.3071799000 3.7735034500
Zn 8.5280314680 6.5358996110 3.7735034500
Zn 8.5284585891 0.0001079721 6.0787274108
Zn 8.5284565758 5.2286214270 6.0787944323
Zn 8.5287466870 -1.3069829130 8.4703016644
Zn 8.5287491922 3.9214086180 8.4703532651
64
Frame from Quantum Espresso Output
Zn 1.2182902100 1.3071799380 0.7547006810
Zn 1.2182902100 6.5358996490 0.7547006810
Zn 1.2182902100 0.0000000010 3.0188027470
Zn 1.2182902100 5.2287197120 3.0188027470
Zn 1.2187208396 -1.3068593273 5.6696212307
Zn 1.2187275221 3.9211675935 5.6696676282
Zn 1.2188258886 -2.6140830854 8.3177057334
Zn 1.2188230618 2.6142459694 8.3176053035
Zn 1.2182902100 3.9215397940 0.7547006810
Zn 1.2182902100 9.1502595050 0.7547006810
Zn 1.2182902100 2.6143598570 3.0188027470
Zn 1.2182902100 7.8430795680 3.0188027470
Zn 1.2187107924 1.3070301440 5.6695810725
Zn 1.2187331457 6.5359942484 5.6697118386
Zn 1.2188217557 0.0001728962 8.3175484253
Zn 1.2188289671 5.2287087941 8.3177541869
Zn 6.0914510490 1.3071799380 0.7547006810
Zn 6.0914510490 6.5358996490 0.7547006810
Zn 6.0914510490 0.0000000010 3.0188027470
Zn 6.0914510490 5.2287197120 3.0188027470
Zn 6.0907697967 -1.3068696108 5.6687871364
Zn 6.0907669129 3.9211733034 5.6688430644
Zn 6.0909460840 -2.6140889007 8.3171706390
Zn 6.0909515641 2.6142557904 8.3170735167
Zn 6.0914510490 3.9215397940 0.7547006810
Zn 6.0914510490 9.1502595050 0.7547006810
Zn 6.0914510490 2.6143598570 3.0188027470
Zn 6.0914510490 7.8430795680 3.0188027470
Zn 6.0907775669 1.3070291323 5.6687349235
Zn 6.0907633780 6.5359908202 5.6688971965
Zn 6.0909550849 0.0001679590 8.3170199405
Zn 6.0909452451 5.2287146916 8.3172200833
Zn 3.6548706290 -0.0000000190 1.5094013850
Zn 3.6548706290 5.2287196920 1.5094013850
Zn 3.6548706290 -1.3071799560 3.7735034500
Zn 3.6548706290 3.9215397550 3.7735034500
Zn 3.6544244529 -2.6141087127 6.0823031382
Zn 3.6544121953 2.6140606750 6.0822283956
Zn 3.6545788320 -3.9214719693 8.4708126845
Zn 3.6545647263 1.3071073631 8.4706298071
Zn 3.6548706290 2.6143598370 1.5094013850
Zn 3.6548706290 7.8430795480 1.5094013850
Zn 3.6548706290 1.3071799000 3.7735034500
Zn 3.6548706290 6.5358996110 3.7735034500
Zn 3.6544114468 0.0001076182 6.0821949154
Zn 3.6544307484 5.2285618514 6.0823477145
Zn 3.6545680263 -1.3069954778 8.4706875763
Zn 3.6545715360 3.9213466994 8.4707566923
Zn 8.5280314680 -0.0000000190 1.5094013850
Zn 8.5280314680 5.2287196920 1.5094013850
Zn 8.5280314680 -1.3071799560 3.7735034500
Zn 8.5280314680 3.9215397550 3.7735034500
Zn 8.5282547408 -2.6141131619 6.0823673083
Zn 8.5282622894 2.6140580959 6.0822988568
Zn 8.5284535194 -3.9214575505 8.4698769784
Zn 8.5284574488 1.3071009747 8.4696726674
Zn 8.5280314680 2.6143598370 1.5094013850
Zn 8.5280314680 7.8430795480 1.5094013850
Zn 8.5280314680 1.3071799000 3.7735034500
Zn 8.5280314680 6.5358996110 3.7735034500
Zn 8.5282566956 0.0001127180 6.0822587517
Zn 8.5282497458 5.2285656375 6.0824058055
Zn 8.5284515284 -1.3069754007 8.4697489983
Zn 8.5284536737 3.9213304369 8.4698142007
64
Frame from Quantum Espresso Output
Zn 1.2182902100 1.3071799380 0.7547006810
Zn 1.2182902100 6.5358996490 0.7547006810
Zn 1.2182902100 0.0000000010 3.0188027470
Zn 1.2182902100 5.2287197120 3.0188027470
Zn 1.2187515275 -1.3068905002 5.6695238366
Zn 1.2187577286 3.9211982448 5.6695792388
Zn 1.2188624029 -2.6141110047 8.3176563617
Zn 1.2188597787 2.6142714661 8.3175613164
Zn 1.2182902100 3.9215397940 0.7547006810
Zn 1.2182902100 9.1502595050 0.7547006810
Zn 1.2182902100 2.6143598570 3.0188027470
Zn 1.2182902100 7.8430795680 3.0188027470
Zn 1.2187424289 1.3070422312 5.6694789244
Zn 1.2187631391 6.5359806125 5.6696276807
Zn 1.2188587146 0.0001620619 8.3175081413
Zn 1.2188652684 5.2287172874 8.3177005194
Zn 6.0914510490 1.3071799380 0.7547006810
Zn 6.0914510490 6.5358996490 0.7547006810
Zn 6.0914510490 0.0000000010 3.0188027470
Zn 6.0914510490 5.2287197120 3.0188027470
Zn 6.0907431540 -1.3069004959 5.6686955902
Zn 6.0907405294 3.9212022651 5.6687602351
Zn 6.0909134666 -2.6141153629 8.3171496031
Zn 6.0909184092 2.6142797677 8.3170573364
Zn 6.0914510490 3.9215397940 0.7547006810
Zn 6.0914510490 9.1502595050 0.7547006810
Zn 6.0914510490 2.6143598570 3.0188027470
Zn 6.0914510490 7.8430795680 3.0188027470
Zn 6.0907500392 1.3070417961 5.6686393969
Zn 6.0907367497 6.5359780383 5.6688185618
Zn 6.0909216553 0.0001579051 8.3170078988
Zn 6.0909129501 5.2287225313 8.3171955733
Zn 3.6548706290 -0.0000000190 1.5094013850
Zn 3.6548706290 5.2287196920 1.5094013850
Zn 3.6548706290 -1.3071799560 3.7735034500
Zn 3.6548706290 3.9215397550 3.7735034500
Zn 3.6543855310 -2.6141416552 6.0819233649
Zn 3.6543737247 2.6140925367 6.0818457962
Zn 3.6545501631 -3.9214835133 8.4709292880
Zn 3.6545372100 1.3071177471 8.4707629472
Zn 3.6548706290 2.6143598370 1.5094013850
Zn 3.6548706290 7.8430795480 1.5094013850
Zn 3.6548706290 1.3071799000 3.7735034500
Zn 3.6548706290 6.5358996110 3.7735034500
Zn 3.6543726165 0.0000946105 6.0818074781
Zn 3.6543913688 5.2285749067 6.0819719466
Zn 3.6545403079 -1.3070190515 8.4708159263
Zn 3.6545437038 3.9213680305 8.4708781129
Zn 8.5280314680 -0.0000000190 1.5094013850
Zn 8.5280314680 5.2287196920 1.5094013850
Zn 8.5280314680 -1.3071799560 3.7735034500
Zn 8.5280314680 3.9215397550 3.7735034500
Zn 8.5282888786 -2.6141450504 6.0819102490
Zn 8.5282959833 2.6140912242 6.0818375717
Zn 8.5284789389 -3.9214702018 8.4700585665
Zn 8.5284827186 1.3071114426 8.4698708453
Zn 8.5280314680 2.6143598370 1.5094013850
Zn 8.5280314680 7.8430795480 1.5094013850
Zn 8.5280314680 1.3071799000 3.7735034500
Zn 8.5280314680 6.5358996110 3.7735034500
Zn 8.5282914623 0.0000982148 6.0817929651
Zn 8.5282844479 5.2285778760 6.0819538823
Zn 8.5284770178 -1.3069996475 8.4699415761
Zn 8.5284787911 3.9213531721 8.4700003194
64
Frame from Quantum Espresso Output
Zn 1.2182902100 1.3071799380 0.7547006810
Zn 1.2182902100 6.5358996490 0.7547006810
Zn 1.2182902100 0.0000000010 3.0188027470
Zn 1.2182902100 5.2287197120 3.0188027470
Zn 1.2187515275 -1.3068905002 5.6695238366
Zn 1.2187577286 3.9211982448 5.6695792388
Zn 1.2188624029 -2.6141110047 8.3176563617
Zn 1.2188597787 2.6142714661 8.3175613164
Zn 1.2182902100 3.9215397940 0.7547006810
Zn 1.2182902100 9.1502595050 0.7547006810
Zn 1.2182902100 2.6143598570 3.0188027470
Zn 1.2182902100 7.8430795680 3.0188027470
Zn 1.2187424289 1.3070422312 5.6694789244
Zn 1.2187631391 6.5359806125 5.6696276807
Zn 1.2188587146 0.0001620619 8.3175081413
Zn 1.2188652684 5.2287172874 8.3177005194
Zn 6.0914510490 1.3071799380 0.7547006810
Zn 6.0914510490 6.5358996490 0.7547006810
Zn 6.0914510490 0.0000000010 3.0188027470
Zn 6.0914510490 5.2287197120 3.0188027470
Zn 6.0907431540 -1.3069004959 5.6686955902
Zn 6.0907405294 3.9212022651 5.6687602351
Zn 6.0909134666 -2.6141153629 8.3171496031
Zn 6.0909184092 2.6142797677 8.3170573364
Zn 6.0914510490 3.9215397940 0.7547006810
Zn 6.0914510490 9.1502595050 0.7547006810
Zn 6.0914510490 2.6143598570 3.0188027470
Zn 6.0914510490 7.8430795680 3.0188027470
Zn 6.0907500392 1.3070417961 5.6686393969
Zn 6.0907367497 6.5359780383 5.6688185618
Zn 6.0909216553 0.0001579051 8.3170078988
Zn 6.0909129501 5.2287225313 8.3171955733
Zn 3.6548706290 -0.0000000190 1.5094013850
Zn 3.6548706290 5.2287196920 1.5094013850
Zn 3.6548706290 -1.3071799560 3.7735034500
Zn 3.6548706290 3.9215397550 3.7735034500
Zn 3.6543855310 -2.6141416552 6.0819233649
Zn 3.6543737247 2.6140925367 6.0818457962
Zn 3.6545501631 -3.9214835133 8.4709292880
Zn 3.6545372100 1.3071177471 8.4707629472
Zn 3.6548706290 2.6143598370 1.5094013850
Zn 3.6548706290 7.8430795480 1.5094013850
Zn 3.6548706290 1.3071799000 3.7735034500
Zn 3.6548706290 6.5358996110 3.7735034500
Zn 3.6543726165 0.0000946105 6.0818074781
Zn 3.6543913688 5.2285749067 6.0819719466
Zn 3.6545403079 -1.3070190515 8.4708159263
Zn 3.6545437038 3.9213680305 8.4708781129
Zn 8.5280314680 -0.0000000190 1.5094013850
Zn 8.5280314680 5.2287196920 1.5094013850
Zn 8.5280314680 -1.3071799560 3.7735034500
Zn 8.5280314680 3.9215397550 3.7735034500
Zn 8.5282888786 -2.6141450504 6.0819102490
Zn 8.5282959833 2.6140912242 6.0818375717
Zn 8.5284789389 -3.9214702018 8.4700585665
Zn 8.5284827186 1.3071114426 8.4698708453
Zn 8.5280314680 2.6143598370 1.5094013850
Zn 8.5280314680 7.8430795480 1.5094013850
Zn 8.5280314680 1.3071799000 3.7735034500
Zn 8.5280314680 6.5358996110 3.7735034500
Zn 8.5282914623 0.0000982148 6.0817929651
Zn 8.5282844479 5.2285778760 6.0819538823
Zn 8.5284770178 -1.3069996475 8.4699415761
Zn 8.5284787911 3.9213531721 8.4700003194
