64
Final Frame from Quantum Espresso Output
Zn 1.2182902100 1.3071799380 0.7547006810
Zn 1.2182902100 6.5358996490 0.7547006810
Zn 1.2182902100 0.0000000010 3.0188027470
Zn 1.2182902100 5.2287197120 3.0188027470
Zn 1.2187515275 -1.3068905002 5.6695238366
Zn 1.2187577286 3.9211982448 5.6695792388
Zn 1.2188624029 -2.6141110047 8.3176563617
Zn 1.2188597787 2.6142714661 8.3175613164
Zn 1.2182902100 3.9215397940 0.7547006810
Zn 1.2182902100 9.1502595050 0.7547006810
Zn 1.2182902100 2.6143598570 3.0188027470
Zn 1.2182902100 7.8430795680 3.0188027470
Zn 1.2187424289 1.3070422312 5.6694789244
Zn 1.2187631391 6.5359806125 5.6696276807
Zn 1.2188587146 0.0001620619 8.3175081413
Zn 1.2188652684 5.2287172874 8.3177005194
Zn 6.0914510490 1.3071799380 0.7547006810
Zn 6.0914510490 6.5358996490 0.7547006810
Zn 6.0914510490 0.0000000010 3.0188027470
Zn 6.0914510490 5.2287197120 3.0188027470
Zn 6.0907431540 -1.3069004959 5.6686955902
Zn 6.0907405294 3.9212022651 5.6687602351
Zn 6.0909134666 -2.6141153629 8.3171496031
Zn 6.0909184092 2.6142797677 8.3170573364
Zn 6.0914510490 3.9215397940 0.7547006810
Zn 6.0914510490 9.1502595050 0.7547006810
Zn 6.0914510490 2.6143598570 3.0188027470
Zn 6.0914510490 7.8430795680 3.0188027470
Zn 6.0907500392 1.3070417961 5.6686393969
Zn 6.0907367497 6.5359780383 5.6688185618
Zn 6.0909216553 0.0001579051 8.3170078988
Zn 6.0909129501 5.2287225313 8.3171955733
Zn 3.6548706290 -0.0000000190 1.5094013850
Zn 3.6548706290 5.2287196920 1.5094013850
Zn 3.6548706290 -1.3071799560 3.7735034500
Zn 3.6548706290 3.9215397550 3.7735034500
Zn 3.6543855310 -2.6141416552 6.0819233649
Zn 3.6543737247 2.6140925367 6.0818457962
Zn 3.6545501631 -3.9214835133 8.4709292880
Zn 3.6545372100 1.3071177471 8.4707629472
Zn 3.6548706290 2.6143598370 1.5094013850
Zn 3.6548706290 7.8430795480 1.5094013850
Zn 3.6548706290 1.3071799000 3.7735034500
Zn 3.6548706290 6.5358996110 3.7735034500
Zn 3.6543726165 0.0000946105 6.0818074781
Zn 3.6543913688 5.2285749067 6.0819719466
Zn 3.6545403079 -1.3070190515 8.4708159263
Zn 3.6545437038 3.9213680305 8.4708781129
Zn 8.5280314680 -0.0000000190 1.5094013850
Zn 8.5280314680 5.2287196920 1.5094013850
Zn 8.5280314680 -1.3071799560 3.7735034500
Zn 8.5280314680 3.9215397550 3.7735034500
Zn 8.5282888786 -2.6141450504 6.0819102490
Zn 8.5282959833 2.6140912242 6.0818375717
Zn 8.5284789389 -3.9214702018 8.4700585665
Zn 8.5284827186 1.3071114426 8.4698708453
Zn 8.5280314680 2.6143598370 1.5094013850
Zn 8.5280314680 7.8430795480 1.5094013850
Zn 8.5280314680 1.3071799000 3.7735034500
Zn 8.5280314680 6.5358996110 3.7735034500
Zn 8.5282914623 0.0000982148 6.0817929651
Zn 8.5282844479 5.2285778760 6.0819538823
Zn 8.5284770178 -1.3069996475 8.4699415761
Zn 8.5284787911 3.9213531721 8.4700003194
