63
Final Frame from Quantum Espresso Output
Zn 0.0000000000 1.5094010000 1.2182900000
Zn 5.2287200000 1.5094010000 1.2182900000
Zn 0.0217162495 1.5034449572 6.1740361576
Zn 5.2506515078 1.4935409539 6.1814011716
Zn -1.3071800000 3.7735030000 1.2182900000
Zn 3.9215400000 3.7735030000 1.2182900000
Zn -1.2740543022 3.7790793113 6.1408866382
Zn 3.9400639457 3.7662294250 6.1794631047
Zn -2.6143600000 6.0376050000 1.2182900000
Zn 2.6143600000 6.0376050000 1.2182900000
Zn -2.5692823214 6.0288546477 6.1342620296
Zn 2.6240560013 6.0279409393 6.1418479606
Zn -3.9215400000 8.3017080000 1.2182900000
Zn 1.3071800000 8.3017080000 1.2182900000
Zn -3.8967657838 8.2897053745 6.1796108126
Zn 1.3224722196 8.2751264688 6.1378179123
Zn 2.6143600000 1.5094010000 1.2182900000
Zn 7.8430800000 1.5094010000 1.2182900000
Zn 2.6337122779 1.4999947687 6.1809373045
Zn 7.8652263552 1.4998825816 6.1788684751
Zn 1.3071800000 3.7735030000 1.2182900000
Zn 6.5359000000 3.7735030000 1.2182900000
Zn 1.3230374248 3.7750548447 6.1439744865
Zn 6.5632492322 3.7675529995 6.1804881608
Zn 0.0000000000 6.0376050000 1.2182900000
Zn 5.2287200000 6.0376050000 1.2182900000
Zn 0.0596254852 6.0038490912 6.6216019833
Zn 5.2493360680 6.0305982906 6.1805935879
Zn -1.3071800000 8.3017080000 1.2182900000
Zn 3.9215400000 8.3017080000 1.2182900000
Zn -1.2745756776 8.2714492783 6.1343977638
Zn 3.9404221928 8.2901111921 6.1746707348
Zn 1.3171397744 0.7525050137 3.6944354886
Zn 6.5475436357 0.7449105049 3.7020994644
Zn 0.0112487416 3.0180917708 3.7073399486
Zn 5.2386034845 3.0163837155 3.6959842829
Zn -1.2874118854 5.2820919465 3.7039283165
Zn 3.9300129581 5.2798160112 3.7027904302
Zn -2.5981206683 7.5378302657 3.7058755794
Zn 2.6241448033 7.5406904331 3.7071426046
Zn 3.9338015124 0.7471098033 3.7039403493
Zn 9.1619974682 0.7500261620 3.6991590937
Zn 2.6226665842 3.0173856221 3.7023670292
Zn 7.8595982686 3.0183546551 3.7021105891
Zn 1.3109452044 5.2819420123 3.6906169020
Zn 6.5508107192 5.2797135745 3.7058772103
Zn 0.0120693187 7.5317280769 3.7038380296
Zn 5.2377713100 7.5413371346 3.6953432102
C 3.0433677677 4.1528253602 13.1720886191
C 2.2826884189 4.6330027640 12.0664709258
C 2.5408358083 5.9034903228 11.5205294740
C 1.2574856034 3.8438246357 11.5140318206
C 1.7458612712 6.4014634270 10.4974510872
C 0.4623356740 4.3422723560 10.4912121362
C 0.6664588004 5.6462614938 10.0103225851
N 3.6610148053 3.7609126892 14.0816782595
N -0.1874324606 6.1810145870 9.0283255010
H -1.1309874106 5.7929680494 9.0391863511
H -0.2344433338 7.1999456863 9.0250759311
H 1.0842062161 2.8430533424 11.9067292259
H 3.3613813170 6.4988939614 11.9185091645
H -0.3331309266 3.7262950352 10.0684693853
H 1.9474644672 7.3903053345 10.0815053863
