62
Final Frame from Quantum Espresso Output
Zn 0.0000000000 1.5094010000 1.2182900000
Zn 5.2287200000 1.5094010000 1.2182900000
Zn 0.0097730970 1.5085168974 5.9288584023
Zn 5.2371278441 1.5075539440 5.9269031667
Zn -1.3071800000 3.7735030000 1.2182900000
Zn 3.9215400000 3.7735030000 1.2182900000
Zn -1.2906654993 3.7679369146 5.9254131485
Zn 3.9293202781 3.7699269910 5.9297696869
Zn -2.6143600000 6.0376050000 1.2182900000
Zn 2.6143600000 6.0376050000 1.2182900000
Zn -2.6000461085 6.0304855360 5.9272947977
Zn 2.6236718574 6.0289420216 5.9059283913
Zn -3.9215400000 8.3017080000 1.2182900000
Zn 1.3071800000 8.3017080000 1.2182900000
Zn -3.9127893119 8.3050822602 5.9258660454
Zn 1.3186200899 8.2953756930 5.9282510651
Zn 2.6143600000 1.5094010000 1.2182900000
Zn 7.8430800000 1.5094010000 1.2182900000
Zn 2.6253126811 1.5096192914 5.9282487841
Zn 7.8487636102 1.5045753409 5.9242387315
Zn 1.3071800000 3.7735030000 1.2182900000
Zn 6.5359000000 3.7735030000 1.2182900000
Zn 1.3225690587 3.7698067494 5.9077808812
Zn 6.5416024584 3.7676227989 5.9274081054
Zn 0.0000000000 6.0376050000 1.2182900000
Zn 5.2287200000 6.0376050000 1.2182900000
Zn 0.0163436924 6.0300926563 5.8671564156
Zn 5.2378149669 6.0335258120 5.9213439896
Zn -1.3071800000 8.3017080000 1.2182900000
Zn 3.9215400000 8.3017080000 1.2182900000
Zn -1.2913735514 8.3012539721 5.9247764700
Zn 3.9286874802 8.3003385251 5.9257587897
Zn 1.3119990161 0.7512171770 3.5711398550
Zn 6.5455913489 0.7496323980 3.5742070680
Zn 0.0069178079 3.0175842689 3.5650471516
Zn 5.2352414929 3.0150394173 3.5666759038
Zn -1.2956487205 5.2817450859 3.5617319511
Zn 3.9260533186 5.2833490182 3.5692531527
Zn -2.6035702500 7.5446247832 3.5779752895
Zn 2.6192738474 7.5450684237 3.5646442781
Zn 3.9281215527 0.7496170336 3.5685674160
Zn 9.1568595678 0.7507977243 3.5795497981
Zn 2.6183011118 3.0173800197 3.5583333003
Zn 7.8519704344 3.0122308138 3.5762438053
Zn 1.3143385465 5.2810699945 3.5547931000
Zn 6.5438460234 5.2822736877 3.5623596841
Zn 0.0085357709 7.5428322951 3.5626792276
Zn 5.2338279470 7.5482284108 3.5660473110
C 2.0362854018 4.6144748620 9.3719048977
C 4.4606853795 4.5575916194 9.5710753776
C 3.2786612993 5.2773398637 9.3967992899
C 3.2044072163 2.5076746927 9.7067255512
C 2.0176581288 3.2157589819 9.5315907420
C 4.4383918303 3.1663217573 9.7172576616
N 0.8520971545 5.3305044403 9.2529470100
H 0.0584108807 4.8042549696 8.8988817364
H 5.4089607599 5.0944269992 9.6071498775
H 3.1643494004 1.4272812996 9.8549048482
H 1.0598514422 2.6885620091 9.5352293191
H 5.3657319164 2.6090305227 9.8567739095
H 3.3094329695 6.3647099488 9.2949156796
H 0.9351681856 6.2389702153 8.8042501189
