63
Final Frame from Quantum Espresso Output
Zn 1.2182900000 1.3071800000 0.7547010000
Zn 1.2182900000 6.5359000004 0.7547010000
Zn 0.4954669733 0.0093979035 3.6574331326
Zn 0.4888113965 5.2526466406 3.6274063591
Zn 1.1843346530 -1.2904909794 6.0859952013
Zn 1.1371889692 3.9439967589 5.9592075964
Zn 1.2182900000 3.9215400000 0.7547010000
Zn 1.2182900000 9.1502600000 0.7547010000
Zn 0.5034488059 2.6184716345 3.5944665388
Zn 0.4944462188 7.8666713532 3.6445402585
Zn 1.1692775504 1.3290729881 6.0477176611
Zn 1.1836321991 6.5525398958 6.0787966956
Zn 6.0914510000 1.3071800000 0.7547010000
Zn 6.0914510000 6.5359000004 0.7547010000
Zn 5.3461063105 0.0154768505 3.6863815000
Zn 5.3787331776 5.2412343824 3.6255920829
Zn 6.0516491019 -1.2867244186 6.0842345181
Zn 6.0500052244 3.9384838517 6.0560625891
Zn 6.0914510000 3.9215400000 0.7547010000
Zn 6.0914510000 9.1502600000 0.7547010000
Zn 5.3605513183 2.6241290479 3.6422687370
Zn 5.3639968847 7.8598277414 3.6354254429
Zn 6.0363810932 1.3328554735 6.1285932195
Zn 6.0592032855 6.5592601020 6.0657659362
Zn 3.6548710000 0.0000000001 1.5094010000
Zn 3.6548710000 5.2287200000 1.5094010000
Zn 2.8534735775 -1.2865155041 3.6936862368
Zn 2.8630317185 3.9153198990 3.7086962810
Zn 3.6264303520 -2.5826410544 5.9990558658
Zn 3.6106970356 2.6445476767 6.2015131548
Zn 3.6548710000 2.6143600000 1.5094010000
Zn 3.6548710000 7.8430800001 1.5094010000
Zn 2.8661066975 1.3195379743 3.7038697583
Zn 2.8271197731 6.5583359576 3.6565645645
Zn 3.6096583494 0.0288208314 6.0316791844
Zn 3.6362779375 5.2784016615 5.8770959187
Zn 8.5280310000 0.0000000001 1.5094010000
Zn 8.5280310000 5.2287200000 1.5094010000
Zn 7.7043335037 -1.2892601577 3.6905634208
Zn 7.7229658341 3.9252317504 3.6890763671
Zn 8.5012034457 -2.6004527664 6.0018211230
Zn 8.4823375980 2.6230854404 6.0035527508
Zn 8.5280310000 2.6143600000 1.5094010000
Zn 8.5280310000 7.8430800001 1.5094010000
Zn 7.7024064761 1.3146090153 3.6842610103
Zn 7.7116021081 6.5475747002 3.6777815493
Zn 8.4896446149 0.0189163069 6.0036991399
Zn 8.4822264007 5.2491604364 5.9933300119
C 5.2898812180 -0.0255164165 12.7097575988
C 4.8072146245 0.7667907236 11.6264060645
C 5.5676646530 1.8473685889 11.1397647585
C 3.5548943121 0.4853743103 11.0475087163
C 5.0692621147 2.6493494022 10.1222454948
C 3.0568777002 1.2892029158 10.0318018272
C 3.7969239591 2.3959638639 9.5846587555
N 5.6785650569 -0.6649255612 13.6055623165
N 3.2902526419 3.2143546759 8.5659537279
H 2.2729193629 3.2476513905 8.5011434796
H 3.6733886480 4.1588974877 8.5459292909
H 2.9728457091 -0.3590664798 11.4160023586
H 6.5397369919 2.0608619806 11.5843774942
H 2.0840058355 1.0749756989 9.5848417431
H 5.6527847922 3.4950566451 9.7534743846
