15
Frame from Quantum Espresso Output
N 7.7086080626 4.5700809889 4.5707456917
N 0.9014383698 4.5702804257 4.5702083707
C 6.3365259441 4.5701075098 4.5706026396
C 5.6147745450 3.3574546881 4.5705955177
C 5.6148323604 5.7827738027 4.5705721270
C 3.5039345210 4.5701920100 4.5704500682
C 4.2272653058 3.3580129693 4.5705581112
C 4.2273347141 5.7823064692 4.5705293733
C 2.0937894642 4.5703629457 4.5704026997
H 6.1542371788 2.4080001208 4.5704853671
H 6.1543470166 6.7322582391 4.5704487284
H 3.6845300645 2.4135226224 4.5703663099
H 3.6846325762 6.7268511573 4.5703307350
H 8.2266841350 5.4354281355 4.5694001008
H 8.2266357418 3.7047219156 4.5694101598
15
Frame from Quantum Espresso Output
N 7.7076413280 4.5700903526 4.5707786746
N 0.9112515016 4.5702839918 4.5702610935
C 6.3399140655 4.5701172470 4.5705545863
C 5.6143219606 3.3573980215 4.5705311881
C 5.6143845975 5.7828760822 4.5705119999
C 3.5064443796 4.5701927818 4.5704211704
C 4.2273609564 3.3590958373 4.5704808456
C 4.2274261485 5.7812482061 4.5704596992
C 2.0803342392 4.5702663195 4.5703538199
H 6.1547289577 2.4074667903 4.5705357540
H 6.1548381424 6.7327920686 4.5704988336
H 3.6841020219 2.4126957767 4.5704167414
H 3.6842033551 6.7276812930 4.5703808351
H 8.2263324368 5.4356704809 4.5694553728
H 8.2262859093 3.7044787508 4.5694653858
15
Frame from Quantum Espresso Output
N 7.7078282074 4.5700821138 4.5707358736
N 0.9128636568 4.5702805335 4.5701936642
C 6.3370805799 4.5701009042 4.5706184708
C 5.6142631564 3.3573068517 4.5706148658
C 5.6143246795 5.7829188966 4.5705902508
C 3.5059013829 4.5701939413 4.5704642325
C 4.2275290644 3.3581542970 4.5705786488
C 4.2275997529 5.7821614374 4.5705483118
C 2.0810302887 4.5703883439 4.5704149838
H 6.1541822748 2.4080706189 4.5704703445
H 6.1542892664 6.7321805263 4.5704337015
H 3.6844812379 2.4134721779 4.5703517672
H 3.6845864759 6.7268971138 4.5703161569
H 8.2268283823 5.4354578423 4.5693823108
H 8.2267815939 3.7046884012 4.5693924171
15
Frame from Quantum Espresso Output
N 7.7064295813 4.5700783880 4.5706879961
N 0.9137492918 4.5702833466 4.5701200854
C 6.3369673160 4.5700778941 4.5706931171
C 5.6134667148 3.3570859567 4.5707076338
C 5.6135394112 5.7831118253 4.5706770822
C 3.5067677519 4.5701997698 4.5705297411
C 4.2275251032 3.3584808675 4.5706787935
C 4.2276073406 5.7818167613 4.5706402049
C 2.0819604906 4.5705062624 4.5704749708
H 6.1538599956 2.4084567425 4.5703987112
H 6.1539579355 6.7317685033 4.5703621271
H 3.6845264690 2.4135961884 4.5702824510
H 3.6846426168 6.7267557162 4.5702466180
H 8.2273059913 5.4352578096 4.5692980944
H 8.2272639903 3.7048779684 4.5693083734
15
Frame from Quantum Espresso Output
N 7.7060272766 4.5700628452 4.5706119298
N 0.9148738492 4.5703010038 4.5700101241
C 6.3365911292 4.5700574636 4.5708111376
C 5.6130088504 3.3572785236 4.5708463599
C 5.6131001953 5.7828779051 4.5708073209
C 3.5078307466 4.5702149277 4.5706597352
C 4.2270979019 3.3588570621 4.5708171451
C 4.2272219738 5.7814303024 4.5707676937
C 2.0831035471 4.5706515725 4.5705520614
H 6.1535361983 2.4086527429 4.5702928962
H 6.1536244798 6.7315269219 4.5702557917
H 3.6844107529 2.4135957431 4.5701837458
H 3.6845494645 6.7267255863 4.5701465617
H 8.2273129167 5.4343802680 4.5691663937
H 8.2272807178 3.7057411317 4.5691771032
15
Frame from Quantum Espresso Output
N 7.7055852607 4.5700521881 4.5705423866
N 0.9157797146 4.5703303220 4.5699116307
C 6.3365469360 4.5700365685 4.5709218762
C 5.6128129046 3.3573612462 4.5709693936
C 5.6129298160 5.7827637667 4.5709228458
C 3.5077742787 4.5702348623 4.5708029698
C 4.2271481546 3.3585798667 4.5709338327
C 4.2273112233 5.7817014078 4.5708756785
C 2.0839111913 4.5707530734 4.5706103766
H 6.1532520244 2.4087555646 4.5702000148
H 6.1533425405 6.7313863176 4.5701617401
H 3.6842142692 2.4136424612 4.5701008664
H 3.6843788914 6.7266567729 4.5700613655
H 8.2273000858 5.4339454119 4.5690398711
H 8.2272827088 3.7061541703 4.5690511515
15
Frame from Quantum Espresso Output
N 7.7055252260 4.5700344981 4.5704877532
N 0.9161209512 4.5703677675 4.5698333104
C 6.3363504596 4.5700208653 4.5710121025
C 5.6129559064 3.3572859993 4.5710627996
C 5.6130977586 5.7828129768 4.5710105916
C 3.5079401330 4.5702497498 4.5709381785
C 4.2271503810 3.3584895823 4.5710220087
C 4.2273447046 5.7817934214 4.5709588806
C 2.0841978935 4.5708051144 4.5706470332
H 6.1530810005 2.4087483463 4.5701295659
H 6.1531891676 6.7313712976 4.5700894435
H 3.6839727267 2.4135744422 4.5700420939
H 3.6841647119 6.7267164797 4.5699995118
H 8.2272420674 5.4339195883 4.5689303659
H 8.2272369120 3.7061638709 4.5689423607
15
Frame from Quantum Espresso Output
N 7.7055252260 4.5700344981 4.5704877532
N 0.9161209512 4.5703677675 4.5698333104
C 6.3363504596 4.5700208653 4.5710121025
C 5.6129559064 3.3572859993 4.5710627996
C 5.6130977586 5.7828129768 4.5710105916
C 3.5079401330 4.5702497498 4.5709381785
C 4.2271503810 3.3584895823 4.5710220087
C 4.2273447046 5.7817934214 4.5709588806
C 2.0841978935 4.5708051144 4.5706470332
H 6.1530810005 2.4087483463 4.5701295659
H 6.1531891676 6.7313712976 4.5700894435
H 3.6839727267 2.4135744422 4.5700420939
H 3.6841647119 6.7267164797 4.5699995118
H 8.2272420674 5.4339195883 4.5689303659
H 8.2272369120 3.7061638709 4.5689423607
