63
Frame from Quantum Espresso Output
Zn -1.0735560000 1.0841420000 1.1977640000
Zn -2.3094850000 6.1646920000 1.1977640000
Zn -4.2042799470 0.3131967004 4.3724374750
Zn -5.4404088259 5.3927689724 4.3770146613
Zn -8.1367032928 -0.6977168560 5.8242969423
Zn -9.3786170255 4.3671402998 5.7775279307
Zn -1.6915200000 3.6244170000 1.1977640000
Zn -2.9274500000 8.7049670000 1.1977640000
Zn -4.8208055143 2.8502438109 4.3742293038
Zn -6.0598847628 7.9355340573 4.3715303023
Zn -8.7573587748 1.8380658009 5.8221640334
Zn -9.9935147117 6.9214181965 5.8052632488
Zn 4.4565960000 1.0841420000 1.1977640000
Zn 3.2206660000 6.1646920000 1.1977640000
Zn 0.4276109728 0.1090298047 3.4640836581
Zn -0.8098363432 5.1919149451 3.4601921329
Zn -2.0557018883 -0.4913528468 5.6881486190
Zn -3.2951989122 4.5886266854 5.6907397738
Zn 3.8386310000 3.6244170000 1.1977640000
Zn 2.6027020000 8.7049670000 1.1977640000
Zn -0.1867034699 2.6503418338 3.4613741195
Zn -1.4273784059 7.7292932850 3.4687110501
Zn -2.6794440093 2.0467651593 5.6941462305
Zn -3.9071942350 7.1313243464 5.6843660679
Zn 1.6915200000 0.4114910000 0.8555450000
Zn 0.4555910000 5.4920410000 0.8555450000
Zn -2.2229276476 -0.5428201517 2.8804210483
Zn -3.4610199626 4.5351134766 2.8834273284
Zn -6.0341428722 -1.4878368084 4.4044032774
Zn -7.2615442875 3.5876031468 4.3936276268
Zn 1.0735560000 2.9517660000 0.8555450000
Zn -0.1623740000 8.0323160000 0.8555450000
Zn -2.8437114739 1.9956623530 2.8802716434
Zn -4.0765977233 7.0770735504 2.8827012309
Zn -6.6514077270 1.0484376478 4.4011107456
Zn -7.8820245298 6.1334754528 4.4061209311
Zn 7.2216720000 0.4114910000 0.8555450000
Zn 5.9857420000 5.4920410000 0.8555450000
Zn 3.0122374645 -0.6211531709 2.9227661117
Zn 1.7847943789 4.4637314726 2.9148623760
Zn 0.4299652630 -1.2163916890 5.8198269213
Zn -0.8166708113 3.8585458763 5.8031572954
Zn 6.6037070000 2.9517660000 0.8555450000
Zn 5.3677780000 8.0323160000 0.8555450000
Zn 2.3972577896 1.9189822783 2.9227187139
Zn 1.1612647475 7.0019285421 2.9250067178
Zn -0.1915028066 1.3236640818 5.8193961924
Zn -1.4223299396 6.4012028515 5.8327657130
C -13.1516971947 3.7364135916 13.5475433380
C -12.3345136148 4.0219696558 12.4163790766
C -12.8964823689 4.1203149210 11.1273146466
C -10.9472142163 4.2206958402 12.5667570026
C -12.1046785266 4.4206456074 10.0303874144
C -10.1543669504 4.5201148643 11.4704462166
C -10.7178256431 4.6383286541 10.1818243349
N -13.8230070541 3.5094255867 14.4762959189
N -9.9311786199 4.9192305156 9.0877803271
H -9.0097680167 5.3085545561 9.2488434719
H -10.3814115706 5.2427735823 8.2346443987
H -10.5000871389 4.1429414300 13.5579139102
H -13.9677967764 3.9639927320 10.9992076463
H -9.0812257149 4.6727943483 11.6038552079
H -12.5510745193 4.4961949883 9.0356421297
63
Frame from Quantum Espresso Output
Zn -1.0735560000 1.0841420000 1.1977640000
Zn -2.3094850000 6.1646920000 1.1977640000
Zn -4.2051509874 0.3125913398 4.3723061269
Zn -5.4404374156 5.3930947783 4.3766451033
Zn -8.1366820145 -0.6975687845 5.8242002586
Zn -9.3787658376 4.3671286842 5.7775981109
Zn -1.6915200000 3.6244170000 1.1977640000
Zn -2.9274500000 8.7049670000 1.1977640000
Zn -4.8216377144 2.8503279434 4.3740699440
Zn -6.0598865571 7.9353272585 4.3712103225
Zn -8.7571921486 1.8382136207 5.8221723594
Zn -9.9934744146 6.9216880376 5.8052644425
Zn 4.4565960000 1.0841420000 1.1977640000
Zn 3.2206660000 6.1646920000 1.1977640000
Zn 0.4275558917 0.1090750114 3.4643765974
Zn -0.8098983019 5.1919502072 3.4607155174
Zn -2.0561659132 -0.4912849590 5.6881347490
Zn -3.2952034748 4.5891394123 5.6910884399
Zn 3.8386310000 3.6244170000 1.1977640000
Zn 2.6027020000 8.7049670000 1.1977640000
Zn -0.1870306972 2.6500230897 3.4613918379
Zn -1.4271889624 7.7291096391 3.4691228207
Zn -2.6793142624 2.0463112901 5.6942196056
Zn -3.9073299703 7.1307522870 5.6845300331
Zn 1.6915200000 0.4114910000 0.8555450000
Zn 0.4555910000 5.4920410000 0.8555450000
Zn -2.2233617149 -0.5430314820 2.8805357305
Zn -3.4613144410 4.5354180829 2.8831313915
Zn -6.0337476836 -1.4877543064 4.4045314018
Zn -7.2622391171 3.5877356532 4.3937213330
Zn 1.0735560000 2.9517660000 0.8555450000
Zn -0.1623740000 8.0323160000 0.8555450000
Zn -2.8436341433 1.9957067221 2.8803252798
Zn -4.0772530860 7.0768990976 2.8825679173
Zn -6.6511607234 1.0488122114 4.4012944143
Zn -7.8824745887 6.1329437211 4.4061233886
Zn 7.2216720000 0.4114910000 0.8555450000
Zn 5.9857420000 5.4920410000 0.8555450000
Zn 3.0122919451 -0.6209279403 2.9230682451
Zn 1.7850792224 4.4637348169 2.9148932036
Zn 0.4301693688 -1.2163665601 5.8199530156
Zn -0.8160854216 3.8587045873 5.8029524592
Zn 6.6037070000 2.9517660000 0.8555450000
Zn 5.3677780000 8.0323160000 0.8555450000
Zn 2.3972492138 1.9190114079 2.9227587513
Zn 1.1611616958 7.0019872636 2.9251275677
Zn -0.1913203229 1.3240626578 5.8197080368
Zn -1.4222298198 6.4009200504 5.8328625099
C -13.1521060397 3.7365067983 13.5464111831
C -12.3342477377 4.0211691775 12.4157117854
C -12.8966281897 4.1207793885 11.1271182075
C -10.9468984070 4.2210264016 12.5661883798
C -12.1051064633 4.4207463892 10.0303160661
C -10.1547580862 4.5206819785 11.4701088340
C -10.7179685235 4.6380743395 10.1814543394
N -13.8226932363 3.5090861717 14.4756019086
N -9.9313590024 4.9200080126 9.0880350017
H -9.0091774436 5.3090450459 9.2483602803
H -10.3815234265 5.2427170504 8.2351383071
H -10.4999891781 4.1429148361 13.5574461361
H -13.9680389411 3.9638468579 10.9986919469
H -9.0811720530 4.6729324644 11.6040026710
H -12.5516876519 4.4963639466 9.0352680572
63
Frame from Quantum Espresso Output
Zn -1.0735560000 1.0841420000 1.1977640000
Zn -2.3094850000 6.1646920000 1.1977640000
Zn -4.2062261211 0.3118298593 4.3720472185
Zn -5.4402937425 5.3935390124 4.3759625291
Zn -8.1367362131 -0.6974366456 5.8241987188
Zn -9.3791490076 4.3671670772 5.7778063821
Zn -1.6915200000 3.6244170000 1.1977640000
Zn -2.9274500000 8.7049670000 1.1977640000
Zn -4.8225971233 2.8506968233 4.3737288162
Zn -6.0597231143 7.9348791786 4.3706465448
Zn -8.7570637904 1.8385956917 5.8223415963
Zn -9.9935212811 6.9218869559 5.8053454282
Zn 4.4565960000 1.0841420000 1.1977640000
Zn 3.2206660000 6.1646920000 1.1977640000
Zn 0.4272840954 0.1091288490 3.4646092752
Zn -0.8101552868 5.1919073178 3.4612762918
Zn -2.0567800851 -0.4912089727 5.6881585339
Zn -3.2950894096 4.5898945630 5.6914987509
Zn 3.8386310000 3.6244170000 1.1977640000
Zn 2.6027020000 8.7049670000 1.1977640000
Zn -0.1877400885 2.6497659196 3.4611840441
Zn -1.4270649719 7.7285438808 3.4695261379
Zn -2.6790522567 2.0458543081 5.6942786111
Zn -3.9074416722 7.1297999524 5.6847538091
Zn 1.6915200000 0.4114910000 0.8555450000
Zn 0.4555910000 5.4920410000 0.8555450000
Zn -2.2238592727 -0.5433482037 2.8805101274
Zn -3.4615534294 4.5359278243 2.8825206614
Zn -6.0331222105 -1.4877985726 4.4046913153
Zn -7.2632237423 3.5881034908 4.3938065509
Zn 1.0735560000 2.9517660000 0.8555450000
Zn -0.1623740000 8.0323160000 0.8555450000
Zn -2.8433613707 1.9960477451 2.8802794502
Zn -4.0780549732 7.0764776469 2.8821458197
Zn -6.6507375034 1.0494999008 4.4015452880
Zn -7.8831237129 6.1320687323 4.4060602439
Zn 7.2216720000 0.4114910000 0.8555450000
Zn 5.9857420000 5.4920410000 0.8555450000
Zn 3.0121881068 -0.6207219444 2.9233197703
Zn 1.7852521031 4.4637695471 2.9147212620
Zn 0.4303202590 -1.2164698484 5.8201741019
Zn -0.8153093650 3.8590288253 5.8025868229
Zn 6.6037070000 2.9517660000 0.8555450000
Zn 5.3677780000 8.0323160000 0.8555450000
Zn 2.3970114799 1.9192221879 2.9226140958
Zn 1.1608007721 7.0018096839 2.9251218992
Zn -0.1911686855 1.3247916626 5.8202256968
Zn -1.4221531616 6.4003148636 5.8329505346
C -13.1526256870 3.7364570505 13.5450466947
C -12.3337804786 4.0202650901 12.4149174109
C -12.8972588415 4.1211601596 11.1270211070
C -10.9471647954 4.2211972763 12.5659941422
C -12.1054090361 4.4210777282 10.0295746306
C -10.1543516912 4.5216055767 11.4695744101
C -10.7185184109 4.6379056412 10.1812194084
N -13.8222435837 3.5085984737 14.4746061863
N -9.9307178807 4.9213055915 9.0888647249
H -9.0088930562 5.3095472874 9.2477626022
H -10.3819602649 5.2428154164 8.2355444354
H -10.4998124722 4.1429149292 13.5568084859
H -13.9682063298 3.9637020332 10.9981327668
H -9.0815194886 4.6731722695 11.6042662691
H -12.5525386348 4.4966300264 9.0351498527
63
Frame from Quantum Espresso Output
Zn -1.0735560000 1.0841420000 1.1977640000
Zn -2.3094850000 6.1646920000 1.1977640000
Zn -4.2065945449 0.3116260680 4.3718825177
Zn -5.4403692779 5.3936181547 4.3756459266
Zn -8.1367090763 -0.6973264845 5.8241465893
Zn -9.3792837734 4.3672179132 5.7779737580
Zn -1.6915200000 3.6244170000 1.1977640000
Zn -2.9274500000 8.7049670000 1.1977640000
Zn -4.8228901089 2.8508749441 4.3735586386
Zn -6.0597401448 7.9346542340 4.3703950723
Zn -8.7569722603 1.8387243733 5.8224128638
Zn -9.9935089078 6.9220273785 5.8053987732
Zn 4.4565960000 1.0841420000 1.1977640000
Zn 3.2206660000 6.1646920000 1.1977640000
Zn 0.4271805015 0.1091091125 3.4647144053
Zn -0.8102276459 5.1918531879 3.4614515722
Zn -2.0569931818 -0.4912415294 5.6881523020
Zn -3.2950524606 4.5900018031 5.6916616409
Zn 3.8386310000 3.6244170000 1.1977640000
Zn 2.6027020000 8.7049670000 1.1977640000
Zn -0.1880395802 2.6496497473 3.4610453284
Zn -1.4270130069 7.7283780385 3.4696790454
Zn -2.6790408851 2.0457442444 5.6942264188
Zn -3.9075032324 7.1295577161 5.6848788258
Zn 1.6915200000 0.4114910000 0.8555450000
Zn 0.4555910000 5.4920410000 0.8555450000
Zn -2.2240899586 -0.5434440777 2.8804790689
Zn -3.4616789528 4.5360428489 2.8822566156
Zn -6.0330001090 -1.4878917973 4.4047416711
Zn -7.2636130670 3.5882495891 4.3938633943
Zn 1.0735560000 2.9517660000 0.8555450000
Zn -0.1623740000 8.0323160000 0.8555450000
Zn -2.8433378389 1.9961619193 2.8803568805
Zn -4.0783801992 7.0763775256 2.8818621237
Zn -6.6507105569 1.0497407903 4.4016442193
Zn -7.8833863401 6.1318037650 4.4060401011
Zn 7.2216720000 0.4114910000 0.8555450000
Zn 5.9857420000 5.4920410000 0.8555450000
Zn 3.0121642929 -0.6206281078 2.9234663395
Zn 1.7852391602 4.4637574412 2.9145684544
Zn 0.4303130893 -1.2164973051 5.8202566135
Zn -0.8150533062 3.8591133567 5.8024676203
Zn 6.6037070000 2.9517660000 0.8555450000
Zn 5.3677780000 8.0323160000 0.8555450000
Zn 2.3968936183 1.9192616253 2.9225575410
Zn 1.1606487570 7.0017990720 2.9251237689
Zn -0.1910615296 1.3250357718 5.8204767227
Zn -1.4220683200 6.4001291191 5.8330515904
C -13.1524175703 3.7361994383 13.5444574940
C -12.3340296927 4.0203029122 12.4146357727
C -12.8972648492 4.1210297925 11.1264610968
C -10.9473318130 4.2210662458 12.5658099938
C -12.1055147587 4.4212412779 10.0291248811
C -10.1543282633 4.5217052271 11.4697021618
C -10.7183865303 4.6383611135 10.1812636319
N -13.8223536497 3.5083437924 14.4743346691
N -9.9307208301 4.9217882873 9.0888408520
H -9.0088367833 5.3097860552 9.2476930739
H -10.3821365137 5.2429337767 8.2355014237
H -10.4997238451 4.1429450099 13.5565660019
H -13.9682910478 3.9637096581 10.9979768747
H -9.0816893084 4.6734281238 11.6042283387
H -12.5528822471 4.4968054660 9.0351412502
63
Frame from Quantum Espresso Output
Zn -1.0735560000 1.0841420000 1.1977640000
Zn -2.3094850000 6.1646920000 1.1977640000
Zn -4.2074262136 0.3111847878 4.3714225797
Zn -5.4406136596 5.3937694114 4.3748539140
Zn -8.1366156761 -0.6970194541 5.8239959009
Zn -9.3795689313 4.3673572704 5.7784492822
Zn -1.6915200000 3.6244170000 1.1977640000
Zn -2.9274500000 8.7049670000 1.1977640000
Zn -4.8235353211 2.8512887037 4.3731152819
Zn -6.0598137336 7.9341276278 4.3697540751
Zn -8.7567195349 1.8389890697 5.8226040071
Zn -9.9934468109 6.9224423382 5.8055579370
Zn 4.4565960000 1.0841420000 1.1977640000
Zn 3.2206660000 6.1646920000 1.1977640000
Zn 0.4269059447 0.1090081946 3.4649542629
Zn -0.8104140791 5.1917177523 3.4618287342
Zn -2.0574935260 -0.4913544854 5.6881059895
Zn -3.2949990851 4.5901445055 5.6920535782
Zn 3.8386310000 3.6244170000 1.1977640000
Zn 2.6027020000 8.7049670000 1.1977640000
Zn -0.1887916742 2.6492972266 3.4606671796
Zn -1.4269214589 7.7280667205 3.4700243894
Zn -2.6790825899 2.0454808258 5.6940516146
Zn -3.9076782308 7.1290824784 5.6851872329
Zn 1.6915200000 0.4114910000 0.8555450000
Zn 0.4555910000 5.4920410000 0.8555450000
Zn -2.2246692171 -0.5436540364 2.8803674298
Zn -3.4620268463 4.5362608444 2.8815978694
Zn -6.0327558265 -1.4881224857 4.4048357796
Zn -7.2645030030 3.5885789628 4.3940140532
Zn 1.0735560000 2.9517660000 0.8555450000
Zn -0.1623740000 8.0323160000 0.8555450000
Zn -2.8433504173 1.9963627497 2.8805735685
Zn -4.0791794196 7.0762228658 2.8811004906
Zn -6.6506979275 1.0502740788 4.4018623330
Zn -7.8839826429 6.1312597788 4.4059959144
Zn 7.2216720000 0.4114910000 0.8555450000
Zn 5.9857420000 5.4920410000 0.8555450000
Zn 3.0121255807 -0.6203862503 2.9238261908
Zn 1.7851841630 4.4637124684 2.9141423127
Zn 0.4302390324 -1.2165407267 5.8204456403
Zn -0.8145024790 3.8592568620 5.8022189400
Zn 6.6037070000 2.9517660000 0.8555450000
Zn 5.3677780000 8.0323160000 0.8555450000
Zn 2.3966164368 1.9192804352 2.9224077634
Zn 1.1602979339 7.0018641204 2.9251183324
Zn -0.1907993422 1.3255461380 5.8211070850
Zn -1.4218628860 6.3997527302 5.8333459664
C -13.1524264265 3.7352672892 13.5439102760
C -12.3345910576 4.0205749059 12.4137415197
C -12.8972153422 4.1206095449 11.1250356080
C -10.9477699835 4.2206848845 12.5654050532
C -12.1055174329 4.4216697774 10.0282218373
C -10.1544490975 4.5218602552 11.4699825420
C -10.7181211072 4.6396197623 10.1813609148
N -13.8222365195 3.5078547968 14.4730439472
N -9.9308467765 4.9229371960 9.0887185466
H -9.0087007944 5.3104074562 9.2475922345
H -10.3825541773 5.2432792876 8.2352969181
H -10.4995512885 4.1430121927 13.5559929808
H -13.9684941422 3.9637476539 10.9976007338
H -9.0820157933 4.6741302496 11.6041304189
H -12.5537353945 4.4972873183 9.0349744050
63
Frame from Quantum Espresso Output
Zn -1.0735560000 1.0841420000 1.1977640000
Zn -2.3094850000 6.1646920000 1.1977640000
Zn -4.2082514703 0.3108087990 4.3707924033
Zn -5.4409443921 5.3938513484 4.3738477573
Zn -8.1364871951 -0.6966040941 5.8238207785
Zn -9.3798805853 4.3675665365 5.7791189732
Zn -1.6915200000 3.6244170000 1.1977640000
Zn -2.9274500000 8.7049670000 1.1977640000
Zn -4.8241293951 2.8518338925 4.3725288506
Zn -6.0599199030 7.9334786243 4.3689489341
Zn -8.7564024264 1.8392925037 5.8228937701
Zn -9.9933636677 6.9229956516 5.8058036673
Zn 4.4565960000 1.0841420000 1.1977640000
Zn 3.2206660000 6.1646920000 1.1977640000
Zn 0.4264931494 0.1088082394 3.4652342091
Zn -0.8106938151 5.1915089576 3.4621861135
Zn -2.0580443258 -0.4915413887 5.6880175187
Zn -3.2949695089 4.5901150209 5.6924642753
Zn 3.8386310000 3.6244170000 1.1977640000
Zn 2.6027020000 8.7049670000 1.1977640000
Zn -0.1897748750 2.6488530849 3.4601523288
Zn -1.4269207242 7.7277355762 3.4703990276
Zn -2.6792277768 2.0452489418 5.6937458118
Zn -3.9079064058 7.1286477007 5.6855485584
Zn 1.6915200000 0.4114910000 0.8555450000
Zn 0.4555910000 5.4920410000 0.8555450000
Zn -2.2253716593 -0.5438619531 2.8801781948
Zn -3.4624760591 4.5364388763 2.8807961399
Zn -6.0325572712 -1.4884510096 4.4049223433
Zn -7.2654664515 3.5889737489 4.3942088653
Zn 1.0735560000 2.9517660000 0.8555450000
Zn -0.1623740000 8.0323160000 0.8555450000
Zn -2.8434585224 1.9965727055 2.8808980925
Zn -4.0801060169 7.0760941423 2.8800686265
Zn -6.6507644726 1.0508792382 4.4021072206
Zn -7.8846367187 6.1307335413 4.4059434891
Zn 7.2216720000 0.4114910000 0.8555450000
Zn 5.9857420000 5.4920410000 0.8555450000
Zn 3.0120777271 -0.6201068405 2.9242520123
Zn 1.7850091567 4.4636423173 2.9135349540
Zn 0.4300179838 -1.2166021253 5.8206785772
Zn -0.8140161633 3.8593417881 5.8019574780
Zn 6.6037070000 2.9517660000 0.8555450000
Zn 5.3677780000 8.0323160000 0.8555450000
Zn 2.3962527429 1.9192648714 2.9222109334
Zn 1.1598648977 7.0019803763 2.9250858671
Zn -0.1905243549 1.3260584616 5.8219149949
Zn -1.4216468937 6.3993699854 5.8337648746
C -13.1521216523 3.7342186896 13.5426779309
C -12.3350138844 4.0208841637 12.4124431807
C -12.8972248813 4.1200639253 11.1237542945
C -10.9483788996 4.2202525543 12.5650941870
C -12.1048434399 4.4222883480 10.0277061151
C -10.1549580838 4.5220984927 11.4697680647
C -10.7183403477 4.6410898896 10.1812517259
N -13.8226321346 3.5069946222 14.4721250930
N -9.9310752378 4.9243624725 9.0886753387
H -9.0085324245 5.3112775293 9.2474677575
H -10.3830103752 5.2438382111 8.2348997297
H -10.4995434945 4.1430195691 13.5553184185
H -13.9686965043 3.9637812609 10.9969875743
H -9.0821566357 4.6750978460 11.6041136517
H -12.5547398993 4.4980130138 9.0342743916
63
Frame from Quantum Espresso Output
Zn -1.0735560000 1.0841420000 1.1977640000
Zn -2.3094850000 6.1646920000 1.1977640000
Zn -4.2083383128 0.3108450833 4.3705271668
Zn -5.4410878104 5.3937765585 4.3734913528
Zn -8.1364497759 -0.6964318578 5.8237568217
Zn -9.3799399551 4.3676793502 5.7794006560
Zn -1.6915200000 3.6244170000 1.1977640000
Zn -2.9274500000 8.7049670000 1.1977640000
Zn -4.8241539328 2.8520427704 4.3723016229
Zn -6.0599882062 7.9332626274 4.3686733422
Zn -8.7563022742 1.8393713053 5.8230264437
Zn -9.9933380666 6.9232300119 5.8059169227
Zn 4.4565960000 1.0841420000 1.1977640000
Zn 3.2206660000 6.1646920000 1.1977640000
Zn 0.4262968646 0.1086706185 3.4653330407
Zn -0.8108179324 5.1914045019 3.4622078934
Zn -2.0581532037 -0.4916462973 5.6879408732
Zn -3.2950081977 4.5899192670 5.6925156700
Zn 3.8386310000 3.6244170000 1.1977640000
Zn 2.6027020000 8.7049670000 1.1977640000
Zn -0.1901301084 2.6486912335 3.4599485154
Zn -1.4270234562 7.7276873899 3.4704958729
Zn -2.6793587691 2.0452562315 5.6935477089
Zn -3.9079940850 7.1286434364 5.6856310041
Zn 1.6915200000 0.4114910000 0.8555450000
Zn 0.4555910000 5.4920410000 0.8555450000
Zn -2.2255832823 -0.5438761332 2.8800803558
Zn -3.4626471829 4.5364170842 2.8805652929
Zn -6.0326214140 -1.4886032552 4.4049274521
Zn -7.2656772328 3.5890845167 4.3942791444
Zn 1.0735560000 2.9517660000 0.8555450000
Zn -0.1623740000 8.0323160000 0.8555450000
Zn -2.8435733184 1.9965997056 2.8810723749
Zn -4.0803521277 7.0761109220 2.8796633601
Zn -6.6508918666 1.0510232088 4.4021679699
Zn -7.8848017611 6.1306983312 4.4059249907
Zn 7.2216720000 0.4114910000 0.8555450000
Zn 5.9857420000 5.4920410000 0.8555450000
Zn 3.0120444194 -0.6200365426 2.9243965237
Zn 1.7848351852 4.4636006411 2.9132789011
Zn 0.4298384752 -1.2166271889 5.8207404834
Zn -0.8140429729 3.8592723106 5.8019083437
Zn 6.6037070000 2.9517660000 0.8555450000
Zn 5.3677780000 8.0323160000 0.8555450000
Zn 2.3960905807 1.9192273107 2.9221618147
Zn 1.1597142536 7.0020436020 2.9250746489
Zn -0.1904675399 1.3260981257 5.8221978717
Zn -1.4216076081 6.3993409356 5.8339500661
C -13.1522958981 3.7338613850 13.5423119711
C -12.3350427862 4.0206938676 12.4122653607
C -12.8972148897 4.1200169908 11.1236687237
C -10.9483782797 4.2203233944 12.5647408754
C -12.1051212002 4.4225245407 10.0273560224
C -10.1550602758 4.5223181369 11.4695076667
C -10.7184274495 4.6414661123 10.1809704954
N -13.8227437930 3.5065885813 14.4717176800
N -9.9311395042 4.9249847932 9.0886330008
H -9.0086065626 5.3116517776 9.2473805958
H -10.3830411938 5.2441482521 8.2347116505
H -10.4997692794 4.1429101218 13.5551818374
H -13.9686828562 3.9637519003 10.9965502680
H -9.0823218056 4.6754655533 11.6041333501
H -12.5546851720 4.4983698259 9.0340772747
63
Frame from Quantum Espresso Output
Zn -1.0735560000 1.0841420000 1.1977640000
Zn -2.3094850000 6.1646920000 1.1977640000
Zn -4.2084404317 0.3108829892 4.3702533105
Zn -5.4412302899 5.3936971523 4.3731142528
Zn -8.1364236146 -0.6962492987 5.8236918676
Zn -9.3800195881 4.3678026117 5.7796881034
Zn -1.6915200000 3.6244170000 1.1977640000
Zn -2.9274500000 8.7049670000 1.1977640000
Zn -4.8241925513 2.8522725670 4.3720634744
Zn -6.0600594356 7.9330276340 4.3683865650
Zn -8.7562105538 1.8394721867 5.8231626883
Zn -9.9933240013 6.9234654769 5.8060369159
Zn 4.4565960000 1.0841420000 1.1977640000
Zn 3.2206660000 6.1646920000 1.1977640000
Zn 0.4260845735 0.1085369829 3.4654448808
Zn -0.8109491900 5.1912852547 3.4622413463
Zn -2.0582694611 -0.4917456826 5.6878570294
Zn -3.2950403727 4.5897263408 5.6925639654
Zn 3.8386310000 3.6244170000 1.1977640000
Zn 2.6027020000 8.7049670000 1.1977640000
Zn -0.1905073188 2.6485286380 3.4597402721
Zn -1.4271320924 7.7276145979 3.4706085049
Zn -2.6794816855 2.0452665059 5.6933351359
Zn -3.9080799132 7.1286104436 5.6857115411
Zn 1.6915200000 0.4114910000 0.8555450000
Zn 0.4555910000 5.4920410000 0.8555450000
Zn -2.2257966309 -0.5438829922 2.8799772556
Zn -3.4628099815 4.5364016955 2.8803248413
Zn -6.0326926836 -1.4887638355 4.4049415378
Zn -7.2659238763 3.5892053568 4.3943549409
Zn 1.0735560000 2.9517660000 0.8555450000
Zn -0.1623740000 8.0323160000 0.8555450000
Zn -2.8436728254 1.9966468980 2.8812511601
Zn -4.0806023662 7.0761130883 2.8792422014
Zn -6.6510270262 1.0511893474 4.4022397645
Zn -7.8850002506 6.1306379856 4.4059069300
Zn 7.2216720000 0.4114910000 0.8555450000
Zn 5.9857420000 5.4920410000 0.8555450000
Zn 3.0119926143 -0.6199649630 2.9245551049
Zn 1.7846354154 4.4635527929 2.9130248601
Zn 0.4296580565 -1.2166580873 5.8208080901
Zn -0.8140672484 3.8592022052 5.8018396666
Zn 6.6037070000 2.9517660000 0.8555450000
Zn 5.3677780000 8.0323160000 0.8555450000
Zn 2.3958980137 1.9192045171 2.9221203563
Zn 1.1595382134 7.0020853205 2.9250720643
Zn -0.1904092619 1.3261552704 5.8224942616
Zn -1.4215634473 6.3992916072 5.8341431356
C -13.1524676370 3.7334795275 13.5419216868
C -12.3350571002 4.0204876591 12.4120566371
C -12.8972415593 4.1199908018 11.1234290410
C -10.9484169500 4.2203716458 12.5644477399
C -12.1053077100 4.4227785683 10.0271001312
C -10.1551260963 4.5225783260 11.4692285860
C -10.7185927608 4.6418419466 10.1806983506
N -13.8228711907 3.5061421243 14.4712719437
N -9.9312453951 4.9256576683 9.0885243494
H -9.0086452513 5.3120771229 9.2472856986
H -10.3830622276 5.2444844315 8.2345104460
H -10.5000074498 4.1428010463 13.5549772091
H -13.9686576490 3.9637130989 10.9960960218
H -9.0825177173 4.6758611757 11.6041287254
H -12.5546771571 4.4987577453 9.0338047476
63
Frame from Quantum Espresso Output
Zn -1.0735560000 1.0841420000 1.1977640000
Zn -2.3094850000 6.1646920000 1.1977640000
Zn -4.2085788838 0.3109458871 4.3698142314
Zn -5.4414554178 5.3935777865 4.3725416459
Zn -8.1363785233 -0.6959707503 5.8235966083
Zn -9.3801091569 4.3680099631 5.7801483981
Zn -1.6915200000 3.6244170000 1.1977640000
Zn -2.9274500000 8.7049670000 1.1977640000
Zn -4.8242429007 2.8525843293 4.3716908702
Zn -6.0601875957 7.9327072386 4.3679384023
Zn -8.7560615701 1.8396062867 5.8233883423
Zn -9.9932893773 6.9238544070 5.8062342376
Zn 4.4565960000 1.0841420000 1.1977640000
Zn 3.2206660000 6.1646920000 1.1977640000
Zn 0.4257489978 0.1083027366 3.4655998947
Zn -0.8111598601 5.1911247626 3.4622665833
Zn -2.0584530525 -0.4919022589 5.6877109495
Zn -3.2951274005 4.5894172955 5.6926257596
Zn 3.8386310000 3.6244170000 1.1977640000
Zn 2.6027020000 8.7049670000 1.1977640000
Zn -0.1910804262 2.6482482896 3.4594212780
Zn -1.4273218528 7.7275433772 3.4707617246
Zn -2.6796989308 2.0452618823 5.6930048044
Zn -3.9082323410 7.1285900621 5.6858149362
Zn 1.6915200000 0.4114910000 0.8555450000
Zn 0.4555910000 5.4920410000 0.8555450000
Zn -2.2261350035 -0.5438910397 2.8797946437
Zn -3.4630863574 4.5363618048 2.8799587646
Zn -6.0328044889 -1.4889781195 4.4049403817
Zn -7.2662448465 3.5893693950 4.3944649577
Zn 1.0735560000 2.9517660000 0.8555450000
Zn -0.1623740000 8.0323160000 0.8555450000
Zn -2.8438615700 1.9966681606 2.8814993342
Zn -4.0809898029 7.0761495666 2.8785962400
Zn -6.6512168761 1.0514014660 4.4023261329
Zn -7.8852699218 6.1306060417 4.4058740649
Zn 7.2216720000 0.4114910000 0.8555450000
Zn 5.9857420000 5.4920410000 0.8555450000
Zn 3.0119332810 -0.6198650174 2.9247767497
Zn 1.7843432817 4.4634920895 2.9126410085
Zn 0.4293738557 -1.2167038119 5.8209116181
Zn -0.8141525060 3.8590695700 5.8017689550
Zn 6.6037070000 2.9517660000 0.8555450000
Zn 5.3677780000 8.0323160000 0.8555450000
Zn 2.3956286053 1.9191369028 2.9220579635
Zn 1.1592969909 7.0021897887 2.9250633171
Zn -0.1903413857 1.3261854341 5.8229491772
Zn -1.4215141778 6.3992573905 5.8344556421
C -13.1526809943 3.7328826923 13.5413555628
C -12.3351147061 4.0202009216 12.4116784079
C -12.8972781134 4.1199440489 11.1230560769
C -10.9485038549 4.2204214407 12.5640269495
C -12.1055250313 4.4231821254 10.0267227230
C -10.1553021937 4.5229643286 11.4688487116
C -10.7187928066 4.6424333020 10.1803422632
N -13.8231270927 3.5054290932 14.4706421660
N -9.9314399299 4.9266598149 9.0883559428
H -9.0087204069 5.3127473181 9.2471651899
H -10.3830920525 5.2450493434 8.2341312162
H -10.5003716498 4.1426338851 13.5546679099
H -13.9686239846 3.9636440336 10.9954211263
H -9.0827904699 4.6764907399 11.6040938131
H -12.5546541096 4.4993675501 9.0333846807
63
Frame from Quantum Espresso Output
Zn -1.0735560000 1.0841420000 1.1977640000
Zn -2.3094850000 6.1646920000 1.1977640000
Zn -4.2089141709 0.3109664342 4.3691917204
Zn -5.4417855539 5.3934354417 4.3716825045
Zn -8.1363352674 -0.6955552791 5.8234753829
Zn -9.3802732131 4.3682978700 5.7808010903
Zn -1.6915200000 3.6244170000 1.1977640000
Zn -2.9274500000 8.7049670000 1.1977640000
Zn -4.8244539417 2.8530336700 4.3711475549
Zn -6.0603967884 7.9322190055 4.3672660517
Zn -8.7558581428 1.8398586205 5.8237223262
Zn -9.9932513764 6.9243923950 5.8065227443
Zn 4.4565960000 1.0841420000 1.1977640000
Zn 3.2206660000 6.1646920000 1.1977640000
Zn 0.4252924270 0.1080037286 3.4658496924
Zn -0.8114431628 5.1908959235 3.4623518458
Zn -2.0587646929 -0.4920907878 5.6875218992
Zn -3.2952399549 4.5890626938 5.6927446673
Zn 3.8386310000 3.6244170000 1.1977640000
Zn 2.6027020000 8.7049670000 1.1977640000
Zn -0.1918962428 2.6478630027 3.4589907333
Zn -1.4275499520 7.7273777244 3.4710051325
Zn -2.6799614711 2.0452199879 5.6925668037
Zn -3.9084584290 7.1284464694 5.6859747542
Zn 1.6915200000 0.4114910000 0.8555450000
Zn 0.4555910000 5.4920410000 0.8555450000
Zn -2.2266510495 -0.5439315586 2.8795175945
Zn -3.4634862413 4.5363585158 2.8793870595
Zn -6.0329418616 -1.4892669981 4.4049578238
Zn -7.2668236482 3.5896119758 4.3946316578
Zn 1.0735560000 2.9517660000 0.8555450000
Zn -0.1623740000 8.0323160000 0.8555450000
Zn -2.8440970331 1.9967473262 2.8818170483
Zn -4.0815959503 7.0761371583 2.8776512119
Zn -6.6514744270 1.0517637394 4.4024775110
Zn -7.8857506942 6.1304540408 4.4058224527
Zn 7.2216720000 0.4114910000 0.8555450000
Zn 5.9857420000 5.4920410000 0.8555450000
Zn 3.0118310380 -0.6197120306 2.9251030317
Zn 1.7839413533 4.4634095576 2.9121299122
Zn 0.4290385016 -1.2167627982 5.8210940269
Zn -0.8141676748 3.8589109095 5.8016448470
Zn 6.6037070000 2.9517660000 0.8555450000
Zn 5.3677780000 8.0323160000 0.8555450000
Zn 2.3952229054 1.9190868059 2.9219934723
Zn 1.1589211752 7.0022872483 2.9250515631
Zn -0.1902030173 1.3263141251 5.8236403478
Zn -1.4214089922 6.3991405915 5.8349092736
C -13.1529950743 3.7320099880 13.5404666139
C -12.3352252913 4.0197499955 12.4110033885
C -12.8973637682 4.1199097668 11.1224266055
C -10.9487051372 4.2204681480 12.5634043693
C -12.1057773974 4.4237905153 10.0261397535
C -10.1555805429 4.5235775315 11.4683603720
C -10.7190757460 4.6432877580 10.1798466774
N -13.8234626211 3.5043614040 14.4696291581
N -9.9316992966 4.9281768762 9.0881562314
H -9.0088093245 5.3137625474 9.2469451809
H -10.3831732245 5.2458918099 8.2335924664
H -10.5008386390 4.1424060415 13.5541626670
H -13.9686314827 3.9635182996 10.9944379010
H -9.0831823894 4.6774271436 11.6040160246
H -12.5547300353 4.5002647388 9.0327660470
63
Frame from Quantum Espresso Output
Zn -1.0735560000 1.0841420000 1.1977640000
Zn -2.3094850000 6.1646920000 1.1977640000
Zn -4.2089141709 0.3109664342 4.3691917204
Zn -5.4417855539 5.3934354417 4.3716825045
Zn -8.1363352674 -0.6955552791 5.8234753829
Zn -9.3802732131 4.3682978700 5.7808010903
Zn -1.6915200000 3.6244170000 1.1977640000
Zn -2.9274500000 8.7049670000 1.1977640000
Zn -4.8244539417 2.8530336700 4.3711475549
Zn -6.0603967884 7.9322190055 4.3672660517
Zn -8.7558581428 1.8398586205 5.8237223262
Zn -9.9932513764 6.9243923950 5.8065227443
Zn 4.4565960000 1.0841420000 1.1977640000
Zn 3.2206660000 6.1646920000 1.1977640000
Zn 0.4252924270 0.1080037286 3.4658496924
Zn -0.8114431628 5.1908959235 3.4623518458
Zn -2.0587646929 -0.4920907878 5.6875218992
Zn -3.2952399549 4.5890626938 5.6927446673
Zn 3.8386310000 3.6244170000 1.1977640000
Zn 2.6027020000 8.7049670000 1.1977640000
Zn -0.1918962428 2.6478630027 3.4589907333
Zn -1.4275499520 7.7273777244 3.4710051325
Zn -2.6799614711 2.0452199879 5.6925668037
Zn -3.9084584290 7.1284464694 5.6859747542
Zn 1.6915200000 0.4114910000 0.8555450000
Zn 0.4555910000 5.4920410000 0.8555450000
Zn -2.2266510495 -0.5439315586 2.8795175945
Zn -3.4634862413 4.5363585158 2.8793870595
Zn -6.0329418616 -1.4892669981 4.4049578238
Zn -7.2668236482 3.5896119758 4.3946316578
Zn 1.0735560000 2.9517660000 0.8555450000
Zn -0.1623740000 8.0323160000 0.8555450000
Zn -2.8440970331 1.9967473262 2.8818170483
Zn -4.0815959503 7.0761371583 2.8776512119
Zn -6.6514744270 1.0517637394 4.4024775110
Zn -7.8857506942 6.1304540408 4.4058224527
Zn 7.2216720000 0.4114910000 0.8555450000
Zn 5.9857420000 5.4920410000 0.8555450000
Zn 3.0118310380 -0.6197120306 2.9251030317
Zn 1.7839413533 4.4634095576 2.9121299122
Zn 0.4290385016 -1.2167627982 5.8210940269
Zn -0.8141676748 3.8589109095 5.8016448470
Zn 6.6037070000 2.9517660000 0.8555450000
Zn 5.3677780000 8.0323160000 0.8555450000
Zn 2.3952229054 1.9190868059 2.9219934723
Zn 1.1589211752 7.0022872483 2.9250515631
Zn -0.1902030173 1.3263141251 5.8236403478
Zn -1.4214089922 6.3991405915 5.8349092736
C -13.1529950743 3.7320099880 13.5404666139
C -12.3352252913 4.0197499955 12.4110033885
C -12.8973637682 4.1199097668 11.1224266055
C -10.9487051372 4.2204681480 12.5634043693
C -12.1057773974 4.4237905153 10.0261397535
C -10.1555805429 4.5235775315 11.4683603720
C -10.7190757460 4.6432877580 10.1798466774
N -13.8234626211 3.5043614040 14.4696291581
N -9.9316992966 4.9281768762 9.0881562314
H -9.0088093245 5.3137625474 9.2469451809
H -10.3831732245 5.2458918099 8.2335924664
H -10.5008386390 4.1424060415 13.5541626670
H -13.9686314827 3.9635182996 10.9944379010
H -9.0831823894 4.6774271436 11.6040160246
H -12.5547300353 4.5002647388 9.0327660470
