63
Final Frame from Quantum Espresso Output
Zn 1.2182900000 1.3071800000 0.7547010000
Zn 1.2182900000 6.5359000001 0.7547010000
Zn 1.9338050010 -0.0022103230 3.6471537580
Zn 1.9405648188 5.2268131986 3.6457922216
Zn 1.2372831924 -1.3056575668 6.0801201699
Zn 1.2389663051 3.9190093997 6.0784705025
Zn 1.2182900000 3.9215400000 0.7547010000
Zn 1.2182900000 9.1502600000 0.7547010000
Zn 1.9406568726 2.6133039576 3.6526420256
Zn 1.9446084754 7.8433572471 3.6602322518
Zn 1.2325403095 1.3043794332 6.0697534974
Zn 1.2446096297 6.5364584366 6.0810054399
Zn 6.0914510000 1.3071800000 0.7547010000
Zn 6.0914510000 6.5359000001 0.7547010000
Zn 6.8136712354 -0.0095855865 3.6332867307
Zn 6.8135372597 5.2296276366 3.6338677835
Zn 6.1189953418 -1.3156898205 6.1632333223
Zn 6.1192566559 3.9178545844 6.0617525238
Zn 6.0914510000 3.9215400000 0.7547010000
Zn 6.0914510000 9.1502600000 0.7547010000
Zn 6.8160315622 2.6114557696 3.6366078664
Zn 6.8139737713 7.8479895602 3.6543415470
Zn 6.1100713718 1.3012078621 6.0138738266
Zn 6.1210019297 6.5302551593 6.0582701668
Zn 3.6548710000 0.0000000000 1.5094010000
Zn 3.6548710000 5.2287200000 1.5094010000
Zn 4.4679151277 -1.3087266149 3.6758313664
Zn 4.4707217040 3.9194382127 3.6631590705
Zn 3.6903856003 -2.6085341826 6.0085941397
Zn 3.6772621861 2.6192061359 5.9895517505
Zn 3.6548710000 2.6143600000 1.5094010000
Zn 3.6548710000 7.8430800001 1.5094010000
Zn 4.4510260179 1.3047012610 3.6782676247
Zn 4.4594044400 6.5404505746 3.6866111457
Zn 3.6745014673 -0.0050600415 5.9704270846
Zn 3.6719308313 5.2263875163 5.9633674491
Zn 8.5280310000 0.0000000000 1.5094010000
Zn 8.5280310000 5.2287200000 1.5094010000
Zn 9.3329955286 -1.3100925161 3.6869806070
Zn 9.3365100526 3.9219957281 3.6795211252
Zn 8.5393502361 -2.6134153207 6.0163513994
Zn 8.5413578147 2.6100785086 5.9845085476
Zn 8.5280310000 2.6143600000 1.5094010000
Zn 8.5280310000 7.8430800001 1.5094010000
Zn 9.3317052149 1.3036005906 3.6840648588
Zn 9.3350782304 6.5356531300 3.6947242398
Zn 8.5344339499 -0.0004773905 6.0070505032
Zn 8.5472274187 5.2222474875 6.0022535687
C 5.8427449460 -0.0787632447 9.3602589628
C 5.4257949225 1.2805693925 9.3721302969
C 6.3617620211 2.3355701176 9.3785229513
C 4.0513847339 1.5982627112 9.3178336179
C 5.9433396698 3.6576260189 9.3390044503
C 3.6312876359 2.9176723971 9.2743249753
C 4.5666907985 3.9799950226 9.2886283574
N 6.1519230187 -1.2061697532 9.3054301185
N 4.1475595458 5.2798213156 9.2514627204
H 3.1946152457 5.4799678844 8.9653787876
H 4.8172451851 6.0141939064 9.0445149467
H 3.3144095394 0.7959288335 9.2852798218
H 7.4264463607 2.1048538173 9.3883460865
H 2.5650649561 3.1414155044 9.2178477593
H 6.6830795565 4.4594160255 9.3303106849
