65
Final Frame from Quantum Espresso Output
Zn 0.0000000000 1.5094010000 1.2182900000
Zn 5.2287200000 1.5094010000 1.2182900000
Zn 0.0071512507 1.5172375517 6.1739619878
Zn 5.2417250764 1.5158111186 6.1940368015
Zn -1.3071800000 3.7735030000 1.2182900000
Zn 3.9215400000 3.7735030000 1.2182900000
Zn -1.2973884821 3.7780881235 6.1573601571
Zn 3.9383920098 3.7810631007 6.2076478508
Zn -2.6143600000 6.0376050000 1.2182900000
Zn 2.6143600000 6.0376050000 1.2182900000
Zn -2.6031780675 6.0440188266 6.2013789553
Zn 2.6279607370 6.0513680665 6.2046244543
Zn -3.9215400000 8.3017080000 1.2182900000
Zn 1.3071800000 8.3017080000 1.2182900000
Zn -3.9118657717 8.3101192828 6.2049276298
Zn 1.3177031965 8.3112751698 6.1923134772
Zn 2.6143600000 1.5094010000 1.2182900000
Zn 7.8430800000 1.5094010000 1.2182900000
Zn 2.6257695495 1.5143365096 6.1529163365
Zn 7.8535903292 1.5169760061 6.1980453379
Zn 1.3071800000 3.7735030000 1.2182900000
Zn 6.5359000000 3.7735030000 1.2182900000
Zn 1.3305809529 3.7918084808 6.2210303821
Zn 6.5473428276 3.7806824455 6.1863505323
Zn 0.0000000000 6.0376050000 1.2182900000
Zn 5.2287200000 6.0376050000 1.2182900000
Zn 0.0087496868 6.0467539899 6.1792343166
Zn 5.2422209706 6.0463748574 6.1946578152
Zn -1.3071800000 8.3017080000 1.2182900000
Zn 3.9215400000 8.3017080000 1.2182900000
Zn -1.2957489736 8.3081512346 6.1873750079
Zn 3.9319415806 8.3101702194 6.1864593727
Zn 1.3107702527 0.7538896939 3.7021077008
Zn 6.5403483390 0.7579727269 3.7030579891
Zn 0.0059495621 3.0214187099 3.6795521551
Zn 5.2344906591 3.0224293017 3.7070301417
Zn -1.3059601216 5.2889775695 3.7037862134
Zn 3.9321745036 5.2889869270 3.7014351713
Zn -2.6109861849 7.5504711979 3.7097411227
Zn 2.6196788114 7.5521885268 3.7087180306
Zn 3.9303919168 0.7579118683 3.6983340945
Zn 9.1542836812 0.7566440775 3.7109918094
Zn 2.6235123749 3.0242217297 3.6951390350
Zn 7.8447949005 3.0214069257 3.7091412131
Zn 1.3154058770 5.2897776023 3.6971224105
Zn 6.5364406727 5.2865130982 3.7060246476
Zn 0.0069742938 7.5540847792 3.7021800512
Zn 5.2323476077 7.5477213547 3.7061248275
C 1.0709597422 3.4733859289 14.9953662391
C 0.3041117150 4.4220105294 11.3597173509
C 1.8174144189 2.5584470849 12.7485565324
C 1.0210061010 3.4598446741 10.6383088260
C 1.0712916620 3.4882143508 13.4849421531
C 1.8016254843 2.5417586200 11.3544935313
C 0.3276545720 4.4226481143 12.7569834171
N 0.9653442385 3.4179220831 9.2250972353
H 2.0829942456 3.6198167453 15.4025492891
H -0.2932984737 5.1659337951 10.8266243003
H 2.4130155275 1.8132749276 13.2798203182
H 0.4339096496 4.2719210070 15.3993664719
H 1.1261219919 2.4827784420 8.8530890311
H 0.0837364515 3.7732135896 8.8563381758
H 2.3934034204 1.7964977586 10.8159947262
H -0.2605116245 5.1688567557 13.2947078196
H 0.6993898567 2.5165988911 15.3952023647
