15
Final Frame from Quantum Espresso Output
N 7.7066943237 4.5678759929 4.5687069219
N 0.9094956727 4.5724760031 4.5678226049
C 6.3364702769 4.5692841738 4.5751387182
C 5.6121718859 3.3551116384 4.5763376916
C 5.6143971315 5.7845575866 4.5726251466
C 3.5076348132 4.5715841784 4.5776839987
C 4.2259333937 3.3577737945 4.5769951343
C 4.2279295625 5.7838235324 4.5737905262
C 2.0837502696 4.5743942362 4.5750150164
H 6.1544363685 2.4035978079 4.5676733626
H 6.1580311429 6.7352026903 4.5639349268
H 3.6793967622 2.4107053961 4.5688669699
H 3.6814769100 6.7307432695 4.5653278778
H 8.2314336228 5.4362266527 4.5622606521
H 8.2303178638 3.6989970471 4.5629264519
