67
Final Frame from Quantum Espresso Output
Zn -0.0000000130 1.5094013740 1.2182902590
Zn 5.2287196980 1.5094013740 1.2182902590
Zn 0.0011120427 1.5098156786 6.1721139700
Zn 5.2276298567 1.5096812409 6.1878303447
Zn -1.3071799410 3.7735034240 1.2182902590
Zn 3.9215397700 3.7735034240 1.2182902590
Zn -1.3069300877 3.7744055475 6.1790147181
Zn 3.9211654507 3.7735432858 6.1841575930
Zn -2.6143598690 6.0376054730 1.2182902590
Zn 2.6143598420 6.0376054730 1.2182902590
Zn -2.6142664897 6.0378510255 6.1861027382
Zn 2.6141756116 6.0366437837 6.1776090524
Zn -3.9215397970 8.3017075230 1.2182902590
Zn 1.3071799140 8.3017075230 1.2182902590
Zn -3.9206627632 8.3013971165 6.1799331037
Zn 1.3061892394 8.3010083570 6.1815705960
Zn 2.6143598430 1.5094013740 1.2182902590
Zn 7.8430795540 1.5094013740 1.2182902590
Zn 2.6139064777 1.5091536489 6.1808539610
Zn 7.8434993133 1.5104311852 6.1795685079
Zn 1.3071799150 3.7735034240 1.2182902590
Zn 6.5358996260 3.7735034240 1.2182902590
Zn 1.3068490933 3.7733862370 6.1747897063
Zn 6.5361293872 3.7744930338 6.1877720625
Zn -0.0000000130 6.0376054730 1.2182902590
Zn 5.2287196980 6.0376054730 1.2182902590
Zn -0.0010277368 6.0371123597 6.1810339429
Zn 5.2296452053 6.0375740856 6.1834586640
Zn -1.3071799410 8.3017075230 1.2182902590
Zn 3.9215397700 8.3017075230 1.2182902590
Zn -1.3082407216 8.3010985074 6.1862800640
Zn 3.9229243575 8.3012795558 6.1747242960
Zn 1.3071799410 0.7547006760 3.6548707760
Zn 6.5358996520 0.7547006760 3.6548707760
Zn 1.3067145165 0.7547497875 8.6986553601
Zn 6.5369387208 0.7524804765 8.7040858950
Zn 0.0000000130 3.0188027250 3.6548707760
Zn 5.2287197240 3.0188027250 3.6548707760
Zn 0.0032674878 3.0233383128 8.6635020672
Zn 5.2293761011 3.0183908361 8.7060711654
Zn -1.3071799150 5.2829047750 3.6548707760
Zn 3.9215397960 5.2829047750 3.6548707760
Zn -1.2986775083 5.2811985670 8.6973430393
Zn 3.9152171372 5.2820252976 8.6695864690
Zn -2.6143598430 7.5470068250 3.6548707760
Zn 2.6143598680 7.5470068250 3.6548707760
Zn -2.6124503658 7.5459741773 8.7028834881
Zn 2.6104352648 7.5385269283 8.6783278313
Zn 3.9215397970 0.7547006760 3.6548707760
Zn 9.1502595080 0.7547006760 3.6548707760
Zn 3.9218346173 0.7524228838 8.7067509206
Zn 9.1508308109 0.7533245632 8.6998108334
Zn 2.6143598690 3.0188027250 3.6548707760
Zn 7.8430795800 3.0188027250 3.6548707760
Zn 2.6115122015 3.0227240897 8.6652818796
Zn 7.8447400028 3.0183068163 8.7034399502
Zn 1.3071799410 5.2829047750 3.6548707760
Zn 6.5358996520 5.2829047750 3.6548707760
Zn 1.3073822476 5.2780227366 8.9699934976
Zn 6.5376233459 5.2836822033 8.7072529712
Zn 0.0000000130 7.5470068250 3.6548707760
Zn 5.2287197240 7.5470068250 3.6548707760
Zn 0.0052140794 7.5378757978 8.6999389319
Zn 5.2283250107 7.5471172473 8.6996299669
O 1.3331834292 5.1553329743 11.7756560261
H 2.2185214453 5.4984830051 12.0235577012
H 1.3863175146 4.1961209877 11.9777799273
