67
Frame from Quantum Espresso Output
Zn -1.0735556040 1.0841422490 1.1977635440
Zn -2.3094850350 6.1646922450 1.1977635440
Zn -5.3677775260 0.0395003770 3.2510723350
Zn -6.6037069570 5.1200503720 3.2510723350
Zn -9.7089195560 -1.0153197644 5.5574001830
Zn -10.9444612646 4.0651762061 5.5568475472
Zn -13.7213723078 -1.9892785863 7.6432241110
Zn -14.9560808164 3.0911083361 7.6430619064
Zn -1.6915203190 3.6244172470 1.1977635440
Zn -2.9274497510 8.7049672430 1.1977635440
Zn -5.9857422410 2.5797753750 3.2510723350
Zn -7.2216716720 7.6603253700 3.2510723350
Zn -10.3264176447 1.5250682890 5.5573868096
Zn -11.5628996562 6.6053331603 5.5568587833
Zn -14.3383694826 0.5514374648 7.6424695394
Zn -15.5754029750 5.6308583921 7.6435068380
Zn 4.4565957630 1.0841422490 1.1977635440
Zn 3.2206663320 6.1646922450 1.1977635440
Zn 0.1623738410 0.0395003770 3.2510723350
Zn -1.0735555900 5.1200503720 3.2510723350
Zn -4.1792282939 -1.0153627723 5.5588462762
Zn -5.4152205082 4.0648737576 5.5585311673
Zn -8.1945450367 -1.9906256666 7.6440693812
Zn -9.4312199582 3.0901066087 7.6443025109
Zn 3.8386310480 3.6244172470 1.1977635440
Zn 2.6027016170 8.7049672430 1.1977635440
Zn -0.4555908740 2.5797753750 3.2510723350
Zn -1.6915203050 7.6603253700 3.2510723350
Zn -4.7972853979 1.5244358199 5.5588288137
Zn -6.0330863402 6.6056334593 5.5585535707
Zn -8.8132992773 0.5500454702 7.6443788547
Zn -10.0483640610 5.6304414812 7.6440943512
Zn 1.6915203330 0.4114908770 0.8555452480
Zn 0.4555909020 5.4920408730 0.8555452480
Zn -2.6027015890 -0.6331509950 2.9088540390
Zn -3.8386310200 4.4473990010 2.9088540390
Zn -6.9469216156 -1.6917672198 5.0366214099
Zn -8.1827395462 3.3890769520 5.0367887488
Zn -11.1182059302 -2.7018510587 7.3039457638
Zn -12.3529337251 2.3791608544 7.3040019961
Zn 1.0735556170 2.9517658750 0.8555452480
Zn -0.1623738140 8.0323158710 0.8555452480
Zn -3.2206663040 1.9071240030 2.9088540390
Zn -4.4565957350 6.9876739990 2.9088540390
Zn -7.5649765968 0.8484405585 5.0367436921
Zn -8.8005772481 5.9294148523 5.0366560249
Zn -11.7355211386 -0.1613220661 7.3041997017
Zn -12.9715639520 4.9192102454 7.3037498091
Zn 7.2216717000 0.4114908770 0.8555452480
Zn 5.9857422690 5.4920408730 0.8555452480
Zn 2.9274497780 -0.6331509950 2.9088540390
Zn 1.6915203470 4.4473990010 2.9088540390
Zn -1.4162111914 -1.6911008414 5.0365779004
Zn -2.6518817476 3.3887563827 5.0360840250
Zn -5.5909851415 -2.7022171332 7.3034669440
Zn -6.8276480205 2.3775479218 7.3037436654
Zn 6.6037069850 2.9517658750 0.8555452480
Zn 5.3677775540 8.0323158710 0.8555452480
Zn 2.3094850630 1.9071240030 2.9088540390
Zn 1.0735556320 6.9876739990 2.9088540390
Zn -2.0337195757 0.8489305936 5.0365785276
Zn -3.2702789950 5.9292477955 5.0360658650
Zn -6.2095605799 -0.1625612169 7.3031397682
Zn -7.4450153871 4.9184572000 7.3040810687
O -6.3374549004 2.8184399284 10.3396209684
H -7.0419892072 3.4295050844 10.6484072095
H -6.5788523146 1.9602866994 10.7493197477
67
Frame from Quantum Espresso Output
Zn -1.0735556040 1.0841422490 1.1977635440
Zn -2.3094850350 6.1646922450 1.1977635440
Zn -5.3677775260 0.0395003770 3.2510723350
Zn -6.6037069570 5.1200503720 3.2510723350
Zn -9.7089195560 -1.0153197644 5.5574001830
Zn -10.9444612646 4.0651762061 5.5568475472
Zn -13.7212519636 -1.9892394359 7.6431706823
Zn -14.9555308498 3.0912694495 7.6431458995
Zn -1.6915203190 3.6244172470 1.1977635440
Zn -2.9274497510 8.7049672430 1.1977635440
Zn -5.9857422410 2.5797753750 3.2510723350
Zn -7.2216716720 7.6603253700 3.2510723350
Zn -10.3264176447 1.5250682890 5.5573868096
Zn -11.5628996562 6.6053331603 5.5568587833
Zn -14.3381973522 0.5514495947 7.6423948521
Zn -15.5752308516 5.6309912958 7.6433496210
Zn 4.4565957630 1.0841422490 1.1977635440
Zn 3.2206663320 6.1646922450 1.1977635440
Zn 0.1623738410 0.0395003770 3.2510723350
Zn -1.0735555900 5.1200503720 3.2510723350
Zn -4.1792282939 -1.0153627723 5.5588462762
Zn -5.4152205082 4.0648737576 5.5585311673
Zn -8.1943661472 -1.9906606857 7.6440607587
Zn -9.4313029213 3.0900236317 7.6439980210
Zn 3.8386310480 3.6244172470 1.1977635440
Zn 2.6027016170 8.7049672430 1.1977635440
Zn -0.4555908740 2.5797753750 3.2510723350
Zn -1.6915203050 7.6603253700 3.2510723350
Zn -4.7972853979 1.5244358199 5.5588288137
Zn -6.0330863402 6.6056334593 5.5585535707
Zn -8.8133510907 0.5502489214 7.6441325803
Zn -10.0481844175 5.6304617752 7.6440958344
Zn 1.6915203330 0.4114908770 0.8555452480
Zn 0.4555909020 5.4920408730 0.8555452480
Zn -2.6027015890 -0.6331509950 2.9088540390
Zn -3.8386310200 4.4473990010 2.9088540390
Zn -6.9469216156 -1.6917672198 5.0366214099
Zn -8.1827395462 3.3890769520 5.0367887488
Zn -11.1182059302 -2.7018510587 7.3039457638
Zn -12.3529337251 2.3791608544 7.3040019961
Zn 1.0735556170 2.9517658750 0.8555452480
Zn -0.1623738140 8.0323158710 0.8555452480
Zn -3.2206663040 1.9071240030 2.9088540390
Zn -4.4565957350 6.9876739990 2.9088540390
Zn -7.5649765968 0.8484405585 5.0367436921
Zn -8.8005772481 5.9294148523 5.0366560249
Zn -11.7355211386 -0.1613220661 7.3041997017
Zn -12.9715639520 4.9192102454 7.3037498091
Zn 7.2216717000 0.4114908770 0.8555452480
Zn 5.9857422690 5.4920408730 0.8555452480
Zn 2.9274497780 -0.6331509950 2.9088540390
Zn 1.6915203470 4.4473990010 2.9088540390
Zn -1.4162111914 -1.6911008414 5.0365779004
Zn -2.6518817476 3.3887563827 5.0360840250
Zn -5.5909851415 -2.7022171332 7.3034669440
Zn -6.8276480205 2.3775479218 7.3037436654
Zn 6.6037069850 2.9517658750 0.8555452480
Zn 5.3677775540 8.0323158710 0.8555452480
Zn 2.3094850630 1.9071240030 2.9088540390
Zn 1.0735556320 6.9876739990 2.9088540390
Zn -2.0337195757 0.8489305936 5.0365785276
Zn -3.2702789950 5.9292477955 5.0360658650
Zn -6.2095605799 -0.1625612169 7.3031397682
Zn -7.4450153871 4.9184572000 7.3040810687
O -6.3379373546 2.8184122533 10.3398685696
H -7.0413308427 3.4292479915 10.6474309304
H -6.5785380439 1.9601701156 10.7489143274
67
Frame from Quantum Espresso Output
Zn -1.0735556040 1.0841422490 1.1977635440
Zn -2.3094850350 6.1646922450 1.1977635440
Zn -5.3677775260 0.0395003770 3.2510723350
Zn -6.6037069570 5.1200503720 3.2510723350
Zn -9.7089195560 -1.0153197644 5.5574001830
Zn -10.9444612646 4.0651762061 5.5568475472
Zn -13.7210467212 -1.9891887526 7.6430529257
Zn -14.9547301552 3.0915269272 7.6433463873
Zn -1.6915203190 3.6244172470 1.1977635440
Zn -2.9274497510 8.7049672430 1.1977635440
Zn -5.9857422410 2.5797753750 3.2510723350
Zn -7.2216716720 7.6603253700 3.2510723350
Zn -10.3264176447 1.5250682890 5.5573868096
Zn -11.5628996562 6.6053331603 5.5568587833
Zn -14.3379431127 0.5514559863 7.6422843145
Zn -15.5749690279 5.6312037655 7.6431129179
Zn 4.4565957630 1.0841422490 1.1977635440
Zn 3.2206663320 6.1646922450 1.1977635440
Zn 0.1623738410 0.0395003770 3.2510723350
Zn -1.0735555900 5.1200503720 3.2510723350
Zn -4.1792282939 -1.0153627723 5.5588462762
Zn -5.4152205082 4.0648737576 5.5585311673
Zn -8.1941054649 -1.9907081002 7.6439853227
Zn -9.4314145555 3.0899003132 7.6434988555
Zn 3.8386310480 3.6244172470 1.1977635440
Zn 2.6027016170 8.7049672430 1.1977635440
Zn -0.4555908740 2.5797753750 3.2510723350
Zn -1.6915203050 7.6603253700 3.2510723350
Zn -4.7972853979 1.5244358199 5.5588288137
Zn -6.0330863402 6.6056334593 5.5585535707
Zn -8.8134164419 0.5505194106 7.6437111439
Zn -10.0479140298 5.6305273137 7.6440599471
Zn 1.6915203330 0.4114908770 0.8555452480
Zn 0.4555909020 5.4920408730 0.8555452480
Zn -2.6027015890 -0.6331509950 2.9088540390
Zn -3.8386310200 4.4473990010 2.9088540390
Zn -6.9469216156 -1.6917672198 5.0366214099
Zn -8.1827395462 3.3890769520 5.0367887488
Zn -11.1182059302 -2.7018510587 7.3039457638
Zn -12.3529337251 2.3791608544 7.3040019961
Zn 1.0735556170 2.9517658750 0.8555452480
Zn -0.1623738140 8.0323158710 0.8555452480
Zn -3.2206663040 1.9071240030 2.9088540390
Zn -4.4565957350 6.9876739990 2.9088540390
Zn -7.5649765968 0.8484405585 5.0367436921
Zn -8.8005772481 5.9294148523 5.0366560249
Zn -11.7355211386 -0.1613220661 7.3041997017
Zn -12.9715639520 4.9192102454 7.3037498091
Zn 7.2216717000 0.4114908770 0.8555452480
Zn 5.9857422690 5.4920408730 0.8555452480
Zn 2.9274497780 -0.6331509950 2.9088540390
Zn 1.6915203470 4.4473990010 2.9088540390
Zn -1.4162111914 -1.6911008414 5.0365779004
Zn -2.6518817476 3.3887563827 5.0360840250
Zn -5.5909851415 -2.7022171332 7.3034669440
Zn -6.8276480205 2.3775479218 7.3037436654
Zn 6.6037069850 2.9517658750 0.8555452480
Zn 5.3677775540 8.0323158710 0.8555452480
Zn 2.3094850630 1.9071240030 2.9088540390
Zn 1.0735556320 6.9876739990 2.9088540390
Zn -2.0337195757 0.8489305936 5.0365785276
Zn -3.2702789950 5.9292477955 5.0360658650
Zn -6.2095605799 -0.1625612169 7.3031397682
Zn -7.4450153871 4.9184572000 7.3040810687
O -6.3379660364 2.8179830694 10.3398566618
H -7.0409094261 3.4292765506 10.6461742233
H -6.5781402580 1.9599283742 10.7483496171
67
Frame from Quantum Espresso Output
Zn -1.0735556040 1.0841422490 1.1977635440
Zn -2.3094850350 6.1646922450 1.1977635440
Zn -5.3677775260 0.0395003770 3.2510723350
Zn -6.6037069570 5.1200503720 3.2510723350
Zn -9.7089195560 -1.0153197644 5.5574001830
Zn -10.9444612646 4.0651762061 5.5568475472
Zn -13.7207119315 -1.9890858935 7.6428706586
Zn -14.9534338633 3.0919207317 7.6436348334
Zn -1.6915203190 3.6244172470 1.1977635440
Zn -2.9274497510 8.7049672430 1.1977635440
Zn -5.9857422410 2.5797753750 3.2510723350
Zn -7.2216716720 7.6603253700 3.2510723350
Zn -10.3264176447 1.5250682890 5.5573868096
Zn -11.5628996562 6.6053331603 5.5568587833
Zn -14.3375101692 0.5514634404 7.6421024995
Zn -15.5745356683 5.6315513058 7.6427431563
Zn 4.4565957630 1.0841422490 1.1977635440
Zn 3.2206663320 6.1646922450 1.1977635440
Zn 0.1623738410 0.0395003770 3.2510723350
Zn -1.0735555900 5.1200503720 3.2510723350
Zn -4.1792282939 -1.0153627723 5.5588462762
Zn -5.4152205082 4.0648737576 5.5585311673
Zn -8.1937261908 -1.9907800111 7.6438953951
Zn -9.4316325655 3.0897249726 7.6427551575
Zn 3.8386310480 3.6244172470 1.1977635440
Zn 2.6027016170 8.7049672430 1.1977635440
Zn -0.4555908740 2.5797753750 3.2510723350
Zn -1.6915203050 7.6603253700 3.2510723350
Zn -4.7972853979 1.5244358199 5.5588288137
Zn -6.0330863402 6.6056334593 5.5585535707
Zn -8.8135514838 0.5509076073 7.6430856125
Zn -10.0475189630 5.6306130200 7.6440267395
Zn 1.6915203330 0.4114908770 0.8555452480
Zn 0.4555909020 5.4920408730 0.8555452480
Zn -2.6027015890 -0.6331509950 2.9088540390
Zn -3.8386310200 4.4473990010 2.9088540390
Zn -6.9469216156 -1.6917672198 5.0366214099
Zn -8.1827395462 3.3890769520 5.0367887488
Zn -11.1182059302 -2.7018510587 7.3039457638
Zn -12.3529337251 2.3791608544 7.3040019961
Zn 1.0735556170 2.9517658750 0.8555452480
Zn -0.1623738140 8.0323158710 0.8555452480
Zn -3.2206663040 1.9071240030 2.9088540390
Zn -4.4565957350 6.9876739990 2.9088540390
Zn -7.5649765968 0.8484405585 5.0367436921
Zn -8.8005772481 5.9294148523 5.0366560249
Zn -11.7355211386 -0.1613220661 7.3041997017
Zn -12.9715639520 4.9192102454 7.3037498091
Zn 7.2216717000 0.4114908770 0.8555452480
Zn 5.9857422690 5.4920408730 0.8555452480
Zn 2.9274497780 -0.6331509950 2.9088540390
Zn 1.6915203470 4.4473990010 2.9088540390
Zn -1.4162111914 -1.6911008414 5.0365779004
Zn -2.6518817476 3.3887563827 5.0360840250
Zn -5.5909851415 -2.7022171332 7.3034669440
Zn -6.8276480205 2.3775479218 7.3037436654
Zn 6.6037069850 2.9517658750 0.8555452480
Zn 5.3677775540 8.0323158710 0.8555452480
Zn 2.3094850630 1.9071240030 2.9088540390
Zn 1.0735556320 6.9876739990 2.9088540390
Zn -2.0337195757 0.8489305936 5.0365785276
Zn -3.2702789950 5.9292477955 5.0360658650
Zn -6.2095605799 -0.1625612169 7.3031397682
Zn -7.4450153871 4.9184572000 7.3040810687
O -6.3377419688 2.8175566900 10.3395766017
H -7.0403552528 3.4293085202 10.6442645791
H -6.5776682782 1.9593068443 10.7476294807
67
Frame from Quantum Espresso Output
Zn -1.0735556040 1.0841422490 1.1977635440
Zn -2.3094850350 6.1646922450 1.1977635440
Zn -5.3677775260 0.0395003770 3.2510723350
Zn -6.6037069570 5.1200503720 3.2510723350
Zn -9.7089195560 -1.0153197644 5.5574001830
Zn -10.9444612646 4.0651762061 5.5568475472
Zn -13.7202261894 -1.9889394826 7.6425885489
Zn -14.9514743379 3.0925273491 7.6440464714
Zn -1.6915203190 3.6244172470 1.1977635440
Zn -2.9274497510 8.7049672430 1.1977635440
Zn -5.9857422410 2.5797753750 3.2510723350
Zn -7.2216716720 7.6603253700 3.2510723350
Zn -10.3264176447 1.5250682890 5.5573868096
Zn -11.5628996562 6.6053331603 5.5568587833
Zn -14.3368844803 0.5514657988 7.6418164090
Zn -15.5738931045 5.6320794450 7.6421508746
Zn 4.4565957630 1.0841422490 1.1977635440
Zn 3.2206663320 6.1646922450 1.1977635440
Zn 0.1623738410 0.0395003770 3.2510723350
Zn -1.0735555900 5.1200503720 3.2510723350
Zn -4.1792282939 -1.0153627723 5.5588462762
Zn -5.4152205082 4.0648737576 5.5585311673
Zn -8.1931261825 -1.9908520706 7.6437333605
Zn -9.4319362589 3.0894853640 7.6415974875
Zn 3.8386310480 3.6244172470 1.1977635440
Zn 2.6027016170 8.7049672430 1.1977635440
Zn -0.4555908740 2.5797753750 3.2510723350
Zn -1.6915203050 7.6603253700 3.2510723350
Zn -4.7972853979 1.5244358199 5.5588288137
Zn -6.0330863402 6.6056334593 5.5585535707
Zn -8.8137116678 0.5514559885 7.6420994487
Zn -10.0468842975 5.6307567806 7.6439595777
Zn 1.6915203330 0.4114908770 0.8555452480
Zn 0.4555909020 5.4920408730 0.8555452480
Zn -2.6027015890 -0.6331509950 2.9088540390
Zn -3.8386310200 4.4473990010 2.9088540390
Zn -6.9469216156 -1.6917672198 5.0366214099
Zn -8.1827395462 3.3890769520 5.0367887488
Zn -11.1182059302 -2.7018510587 7.3039457638
Zn -12.3529337251 2.3791608544 7.3040019961
Zn 1.0735556170 2.9517658750 0.8555452480
Zn -0.1623738140 8.0323158710 0.8555452480
Zn -3.2206663040 1.9071240030 2.9088540390
Zn -4.4565957350 6.9876739990 2.9088540390
Zn -7.5649765968 0.8484405585 5.0367436921
Zn -8.8005772481 5.9294148523 5.0366560249
Zn -11.7355211386 -0.1613220661 7.3041997017
Zn -12.9715639520 4.9192102454 7.3037498091
Zn 7.2216717000 0.4114908770 0.8555452480
Zn 5.9857422690 5.4920408730 0.8555452480
Zn 2.9274497780 -0.6331509950 2.9088540390
Zn 1.6915203470 4.4473990010 2.9088540390
Zn -1.4162111914 -1.6911008414 5.0365779004
Zn -2.6518817476 3.3887563827 5.0360840250
Zn -5.5909851415 -2.7022171332 7.3034669440
Zn -6.8276480205 2.3775479218 7.3037436654
Zn 6.6037069850 2.9517658750 0.8555452480
Zn 5.3677775540 8.0323158710 0.8555452480
Zn 2.3094850630 1.9071240030 2.9088540390
Zn 1.0735556320 6.9876739990 2.9088540390
Zn -2.0337195757 0.8489305936 5.0365785276
Zn -3.2702789950 5.9292477955 5.0360658650
Zn -6.2095605799 -0.1625612169 7.3031397682
Zn -7.4450153871 4.9184572000 7.3040810687
O -6.3371127014 2.8166953949 10.3389843310
H -7.0396636041 3.4293428439 10.6413630445
H -6.5770095131 1.9585182560 10.7464889956
67
Frame from Quantum Espresso Output
Zn -1.0735556040 1.0841422490 1.1977635440
Zn -2.3094850350 6.1646922450 1.1977635440
Zn -5.3677775260 0.0395003770 3.2510723350
Zn -6.6037069570 5.1200503720 3.2510723350
Zn -9.7089195560 -1.0153197644 5.5574001830
Zn -10.9444612646 4.0651762061 5.5568475472
Zn -13.7195048468 -1.9887301422 7.6421209111
Zn -14.9485425352 3.0934426287 7.6445894269
Zn -1.6915203190 3.6244172470 1.1977635440
Zn -2.9274497510 8.7049672430 1.1977635440
Zn -5.9857422410 2.5797753750 3.2510723350
Zn -7.2216716720 7.6603253700 3.2510723350
Zn -10.3264176447 1.5250682890 5.5573868096
Zn -11.5628996562 6.6053331603 5.5568587833
Zn -14.3359329568 0.5514616910 7.6413265575
Zn -15.5729328500 5.6328838901 7.6412131110
Zn 4.4565957630 1.0841422490 1.1977635440
Zn 3.2206663320 6.1646922450 1.1977635440
Zn 0.1623738410 0.0395003770 3.2510723350
Zn -1.0735555900 5.1200503720 3.2510723350
Zn -4.1792282939 -1.0153627723 5.5588462762
Zn -5.4152205082 4.0648737576 5.5585311673
Zn -8.1922331659 -1.9909427637 7.6434700573
Zn -9.4324098687 3.0891558972 7.6398479673
Zn 3.8386310480 3.6244172470 1.1977635440
Zn 2.6027016170 8.7049672430 1.1977635440
Zn -0.4555908740 2.5797753750 3.2510723350
Zn -1.6915203050 7.6603253700 3.2510723350
Zn -4.7972853979 1.5244358199 5.5588288137
Zn -6.0330863402 6.6056334593 5.5585535707
Zn -8.8139614960 0.5522370328 7.6406080581
Zn -10.0459251700 5.6309610858 7.6438364638
Zn 1.6915203330 0.4114908770 0.8555452480
Zn 0.4555909020 5.4920408730 0.8555452480
Zn -2.6027015890 -0.6331509950 2.9088540390
Zn -3.8386310200 4.4473990010 2.9088540390
Zn -6.9469216156 -1.6917672198 5.0366214099
Zn -8.1827395462 3.3890769520 5.0367887488
Zn -11.1182059302 -2.7018510587 7.3039457638
Zn -12.3529337251 2.3791608544 7.3040019961
Zn 1.0735556170 2.9517658750 0.8555452480
Zn -0.1623738140 8.0323158710 0.8555452480
Zn -3.2206663040 1.9071240030 2.9088540390
Zn -4.4565957350 6.9876739990 2.9088540390
Zn -7.5649765968 0.8484405585 5.0367436921
Zn -8.8005772481 5.9294148523 5.0366560249
Zn -11.7355211386 -0.1613220661 7.3041997017
Zn -12.9715639520 4.9192102454 7.3037498091
Zn 7.2216717000 0.4114908770 0.8555452480
Zn 5.9857422690 5.4920408730 0.8555452480
Zn 2.9274497780 -0.6331509950 2.9088540390
Zn 1.6915203470 4.4473990010 2.9088540390
Zn -1.4162111914 -1.6911008414 5.0365779004
Zn -2.6518817476 3.3887563827 5.0360840250
Zn -5.5909851415 -2.7022171332 7.3034669440
Zn -6.8276480205 2.3775479218 7.3037436654
Zn 6.6037069850 2.9517658750 0.8555452480
Zn 5.3677775540 8.0323158710 0.8555452480
Zn 2.3094850630 1.9071240030 2.9088540390
Zn 1.0735556320 6.9876739990 2.9088540390
Zn -2.0337195757 0.8489305936 5.0365785276
Zn -3.2702789950 5.9292477955 5.0360658650
Zn -6.2095605799 -0.1625612169 7.3031397682
Zn -7.4450153871 4.9184572000 7.3040810687
O -6.3359529097 2.8155669587 10.3378812265
H -7.0386434107 3.4292263916 10.6370079121
H -6.5761710156 1.9572970708 10.7448657218
