65
Final Frame from Quantum Espresso Output
Zn 1.2182900000 1.3071800000 0.7547010000
Zn 1.2182900000 6.5359000000 0.7547010000
Zn 1.2185866257 -0.0042911738 3.5055158274
Zn 1.2254349821 5.2338778716 3.5224105424
Zn 1.2148272907 -1.3032001550 6.0385860869
Zn 1.1963968120 3.9234429618 6.0647762966
Zn 1.2182900000 3.9215400000 0.7547010000
Zn 1.2182900000 9.1502600000 0.7547010000
Zn 1.2260100703 2.6214113020 3.5450994012
Zn 1.2181455236 7.8382749357 3.5673463598
Zn 1.2001449982 1.3042737479 6.0051361668
Zn 1.2140771583 6.5310403704 6.0842824186
Zn 6.0914510000 1.3071800000 0.7547010000
Zn 6.0914510000 6.5359000000 0.7547010000
Zn 6.1099336592 -0.0031572216 3.4988783296
Zn 6.1096036912 5.2334165296 3.5251382148
Zn 6.0785778513 -1.3027108570 6.0319948841
Zn 6.0687123311 3.9209077339 6.0789803064
Zn 6.0914510000 3.9215400000 0.7547010000
Zn 6.0914510000 9.1502600000 0.7547010000
Zn 6.1193059338 2.6241965786 3.5479555220
Zn 6.1028120025 7.8375697393 3.5660116746
Zn 6.0765639044 1.3049652731 5.9954379518
Zn 6.0714562515 6.5311353231 6.0891889885
Zn 3.6548710000 -0.0000000000 1.5094010000
Zn 3.6548710000 5.2287200000 1.5094010000
Zn 3.6606945601 -1.2991131490 3.8063942051
Zn 3.6745570446 3.9289995403 3.7557573770
Zn 3.6452442901 -2.6318311342 6.1258489096
Zn 3.6260065286 2.6328243223 6.0706298171
Zn 3.6548710000 2.6143600000 1.5094010000
Zn 3.6548710000 7.8430800000 1.5094010000
Zn 3.6719748971 1.2907913909 3.7948771750
Zn 3.6647150915 6.5403631358 3.7729149959
Zn 3.6430346655 0.0007123821 6.2949102944
Zn 3.6385400784 5.2222677315 6.1429495145
Zn 8.5280310000 -0.0000000000 1.5094010000
Zn 8.5280310000 5.2287200000 1.5094010000
Zn 8.5339100077 -1.3072359336 3.7881248805
Zn 8.5493735098 3.9241194766 3.7858016356
Zn 8.5196667623 -2.6149597118 6.1603955654
Zn 8.5065702613 2.6143514092 6.1711111200
Zn 8.5280310000 2.6143600000 1.5094010000
Zn 8.5280310000 7.8430800000 1.5094010000
Zn 8.5468691076 1.3061914389 3.7888764744
Zn 8.5375890152 6.5359027368 3.7884142004
Zn 8.5167048233 0.0001519286 6.1738377956
Zn 8.5080485006 5.2270887178 6.1734817226
C 2.5905963367 2.1985438593 9.3075090028
C 3.7573632518 1.4377545606 9.1433630793
C 2.6777481689 3.5503887423 9.6342523418
C 5.0018682605 2.0568972405 9.3087383110
C 3.9165697341 4.1865929100 9.8022759842
C 5.0712150843 3.4120007030 9.6355573919
C 3.9914233282 5.6569791870 10.1177999286
N 3.6775735520 0.1060491185 8.6646159319
H 2.8146524065 -0.3765793310 8.9097741024
H 3.3933286338 5.9115004331 11.0059994337
H 1.6132645853 1.7405373029 9.1410048368
H 4.4854739566 -0.4729599412 8.8896573937
H 1.7579399770 4.1287004954 9.7389156921
H 5.9196135585 1.4882396152 9.1449469840
H 6.0516357746 3.8789789626 9.7435380387
H 5.0258253640 5.9746149901 10.3010901663
H 3.6068138219 6.2524449653 9.2731683463
