63
Frame from Quantum Espresso Output
Zn       0.0000000000      1.5094010000      1.2182900000                 
Zn       5.2287200000      1.5094010000      1.2182900000                 
Zn      -0.0000096675      1.5092730247      6.1618663341                 
Zn       5.2287790263      1.5104001732      6.1630472188                 
Zn      -1.3071800000      3.7735030000      1.2182900000                 
Zn       3.9215400000      3.7735030000      1.2182900000                 
Zn      -1.3078126373      3.7740954683      6.1620670947                 
Zn       3.9222371638      3.7745875350      6.1619505094                 
Zn      -2.6143600000      6.0376050000      1.2182900000                 
Zn       2.6143600000      6.0376050000      1.2182900000                 
Zn      -2.6153311427      6.0371380931      6.1617222212                 
Zn       2.6152632692      6.0372127888      6.1624364666                 
Zn      -3.9215400000      8.3017080000      1.2182900000                 
Zn       1.3071800000      8.3017080000      1.2182900000                 
Zn      -3.9219036253      8.3005607928      6.1616166348                 
Zn       1.3075246591      8.3011586794      6.1634745442                 
Zn       2.6143600000      1.5094010000      1.2182900000                 
Zn       7.8430800000      1.5094010000      1.2182900000                 
Zn       2.6141434819      1.5095566218      6.1620232333                 
Zn       7.8432408336      1.5100700941      6.1629548570                 
Zn       1.3071800000      3.7735030000      1.2182900000                 
Zn       6.5359000000      3.7735030000      1.2182900000                 
Zn       1.3073285016      3.7739231453      6.1619126510                 
Zn       6.5356836249      3.7747558139      6.1619446658                 
Zn       0.0000000000      6.0376050000      1.2182900000                 
Zn       5.2287200000      6.0376050000      1.2182900000                 
Zn      -0.0003568690      6.0371318840      6.1626273869                 
Zn       5.2291219497      6.0371955970      6.1614378507                 
Zn      -1.3071800000      8.3017080000      1.2182900000                 
Zn       3.9215400000      8.3017080000      1.2182900000                 
Zn      -1.3079186939      8.3009478534      6.1626862803                 
Zn       3.9222592486      8.3007886782      6.1624134495                 
Zn       1.3066559796      0.7541692607      3.6891232281                 
Zn       6.5364395627      0.7558698909      3.6914293308                 
Zn      -0.0011156002      3.0194754616      3.6901825901                 
Zn       5.2298455352      3.0205522007      3.6915496156                 
Zn      -1.3086161387      5.2822921794      3.6913792096                 
Zn       3.9229761019      5.2828356165      3.6915781438                 
Zn      -2.6151656543      7.5452529770      3.6904034609                 
Zn       2.6151734470      7.5464486452      3.6913780835                 
Zn       3.9222280572      0.7552353797      3.6900687377                 
Zn       9.1495376038      0.7547754235      3.6906069044                 
Zn       2.6154190793      3.0200910937      3.6900470735                 
Zn       7.8419867936      3.0199316271      3.6917080903                 
Zn       1.3076664924      5.2830168607      3.6909997226                 
Zn       6.5354098617      5.2821432286      3.6919866497                 
Zn       0.0001364161      7.5464191588      3.6909498650                 
Zn       5.2285633792      7.5452436556      3.6907607288                 
C        3.6955832876      6.3234864657     13.0792465880                 
C        2.6510480971      5.6850097210     13.7529227284                 
C        3.7014531231      6.3765924661     11.6832389849                 
C        1.6059391545      5.0893244297     13.0421342423                 
C        2.6455708539      5.7768146091     11.0070696602                 
C        1.5940944505      5.1305787041     11.6458589120                 
N        2.6239099139      5.8602655031      9.5138199684                 
H        4.5114441115      6.7831281030     13.6360237618                 
H        2.6529372460      5.6490876518     14.8422148270                 
H        3.5795217511      5.8596835385      9.1289639331                 
H        4.5143563198      6.8742648008     11.1502635820                 
H        0.7956929508      4.5877395978     13.5702257169                 
H        2.1230068783      5.0578983862      9.1058744346                 
H        0.7805016784      4.6663225153     11.0842742592                 
H        2.1560173364      6.7195207485      9.1857764663                 
