62
Final Frame from Quantum Espresso Output
Zn -1.0735560000 1.0841420000 1.1977640000
Zn -2.3094850000 6.1646920000 1.1977640000
Zn -4.2367179940 0.3253400277 4.3673258389
Zn -5.4872624632 5.4029757235 4.3386697595
Zn -8.1774067830 -0.6290488872 5.8329481958
Zn -9.4785220491 4.4351235612 5.7729606443
Zn -1.6915200000 3.6244170000 1.1977640000
Zn -2.9274500000 8.7049670000 1.1977640000
Zn -4.8622594806 2.8593798461 4.3429023598
Zn -6.0977589040 7.9497594680 4.3699933253
Zn -8.7967255180 1.9041798526 5.8257726563
Zn -10.0915147187 6.9845244924 5.7936514884
Zn 4.4565960000 1.0841420000 1.1977640000
Zn 3.2206660000 6.1646920000 1.1977640000
Zn 0.4111560560 0.0999749987 3.4669676412
Zn -0.8091852075 5.1897522676 3.4563473369
Zn -2.0984942527 -0.5006717063 5.7192884433
Zn -3.3578631335 4.5765275988 5.6681340391
Zn 3.8386310000 3.6244170000 1.1977640000
Zn 2.6027020000 8.7049670000 1.1977640000
Zn -0.2069483034 2.6424270130 3.4596860243
Zn -1.4328423864 7.7267538771 3.4666331823
Zn -2.7172282753 2.0309245729 5.6864906344
Zn -3.9483061427 7.1352596340 5.6543555301
Zn 1.6915200000 0.4114910000 0.8555450000
Zn 0.4555910000 5.4920410000 0.8555450000
Zn -2.2306320476 -0.5340263362 2.8960624169
Zn -3.4741161097 4.5425796317 2.8773712602
Zn -6.0677682657 -1.4668016424 4.4463672412
Zn -7.3094714552 3.6157786405 4.4199953675
Zn 1.0735560000 2.9517660000 0.8555450000
Zn -0.1623740000 8.0323160000 0.8555450000
Zn -2.8594622576 2.0016229944 2.8794347574
Zn -4.1066870946 7.0825375461 2.8686549046
Zn -6.6807925483 1.0800209173 4.4243843487
Zn -7.9283770277 6.1561132839 4.4583282036
Zn 7.2216720000 0.4114910000 0.8555450000
Zn 5.9857420000 5.4920410000 0.8555450000
Zn 3.0053368482 -0.6095993999 2.9232373571
Zn 1.7720637131 4.4741036908 2.9128601216
Zn 0.4017731321 -1.2362302208 5.8251105715
Zn -0.8797960653 3.8366573903 5.7978916910
Zn 6.6037070000 2.9517660000 0.8555450000
Zn 5.3677780000 8.0323160000 0.8555450000
Zn 2.3811392401 1.9285317210 2.9221521479
Zn 1.1613412805 7.0155970908 2.9187225388
Zn -0.2166741708 1.3047395911 5.8170124105
Zn -1.4916005044 6.3708103916 5.8070686223
C -5.2848011249 4.8101451311 8.2436419257
N -7.2319278038 6.2563281480 8.1006787204
C -4.7302727048 3.5368832167 8.3857580741
C -6.6829952775 4.9901378215 8.2300015776
H -4.6349525849 5.6848582768 8.1631954878
H -6.6586836581 6.9423020213 7.6142300234
C -5.5488071386 2.4090347496 8.5112201732
C -7.5003895815 3.8554787780 8.4141238845
C -6.9346329006 2.5846567613 8.5433299235
H -3.6431252484 3.4307273202 8.4079429347
H -8.2000439910 6.2899060545 7.7847204270
H -5.1115664068 1.4156726623 8.6074863991
H -8.5846648429 3.9779760245 8.4761120173
H -7.5902628087 1.7208281333 8.6757163470
