63
Final Frame from Quantum Espresso Output
Zn 1.2182900000 1.3071800000 0.7547010000
Zn 1.2182900000 6.5359000000 0.7547010000
Zn 0.5052130037 -0.0030341795 3.6481318411
Zn 0.5062924442 5.2311654137 3.6437719952
Zn 1.2174098998 -1.3047969463 6.0900002949
Zn 1.2136504255 3.9214590754 6.0853314269
Zn 1.2182900000 3.9215400000 0.7547010000
Zn 1.2182900000 9.1502600000 0.7547010000
Zn 0.5044670042 2.6165471280 3.6455404591
Zn 0.5059789120 7.8427784469 3.6434576901
Zn 1.2139866401 1.3065974211 6.0778674853
Zn 1.2152364707 6.5364899247 6.0828936258
Zn 6.0914510000 1.3071800000 0.7547010000
Zn 6.0914510000 6.5359000000 0.7547010000
Zn 5.3898485015 -0.0015804018 3.6346327931
Zn 5.3866095340 5.2287364950 3.6398172529
Zn 6.0907203081 -1.3071209851 6.0829578953
Zn 6.0889806249 3.9203657954 6.0788344054
Zn 6.0914510000 3.9215400000 0.7547010000
Zn 6.0914510000 9.1502600000 0.7547010000
Zn 5.3920335041 2.6153728663 3.6288688975
Zn 5.3873471965 7.8432705421 3.6381144421
Zn 6.0895466865 1.3061515830 6.0769366480
Zn 6.0909354756 6.5360089350 6.0774212239
Zn 3.6548710000 0.0000000000 1.5094010000
Zn 3.6548710000 5.2287200000 1.5094010000
Zn 2.8566345441 -1.3101143112 3.6837416080
Zn 2.8538102958 3.9261447335 3.6830496512
Zn 3.6578918416 -2.6160703620 5.9967819354
Zn 3.6634374858 2.6225366347 5.9459851320
Zn 3.6548710000 2.6143600000 1.5094010000
Zn 3.6548710000 7.8430800000 1.5094010000
Zn 2.8509109534 1.3061409343 3.6803261457
Zn 2.8613770817 6.5371475536 3.6852029552
Zn 3.6671540253 -0.0045214216 5.9657861848
Zn 3.6574221656 5.2327705938 5.9941047002
Zn 8.5280310000 0.0000000000 1.5094010000
Zn 8.5280310000 5.2287200000 1.5094010000
Zn 7.7415487686 -1.3088838495 3.6946353881
Zn 7.7387555705 3.9225656851 3.6951126930
Zn 8.5337159896 -2.6140828096 6.0085965391
Zn 8.5323660296 2.6151179836 6.0052997846
Zn 8.5280310000 2.6143600000 1.5094010000
Zn 8.5280310000 7.8430800000 1.5094010000
Zn 7.7392790607 1.3074520571 3.6922021837
Zn 7.7415091151 6.5370154268 3.6936489601
Zn 8.5302696320 -0.0014814143 6.0056408121
Zn 8.5314112548 5.2289080365 6.0076958155
C 1.0938389216 1.0801849352 14.2290395468
C 1.7797591238 1.1697047842 12.9842106114
C 3.0725277750 1.7262733604 12.9145951298
C 1.1711447005 0.7182620580 11.7957700313
C 3.7314561712 1.8316833203 11.6998005762
C 1.8296536482 0.8221842544 10.5805102964
C 3.1224916799 1.3859806406 10.5066842662
N 0.5278773240 1.0171927270 15.2491501105
N 3.7877401505 1.4548940482 9.3036705351
H 3.2502588992 1.3644861947 8.4444641202
H 4.5886708886 2.0710528737 9.2226242672
H 0.1710302067 0.2866327051 11.8382762604
H 3.5537583023 2.0771138128 13.8275970039
H 1.3462239228 0.4711861794 9.6658826237
H 4.7334416705 2.2639244327 11.6649143460
