32
Final Frame from Quantum Espresso Output
Zn -0.0000000130 1.5094013740 1.2182902100
Zn -0.0000000130 1.5094013740 3.6548706300
Zn 0.1225398057 1.3518236102 10.1306817694
Zn 0.5245054171 1.4637233094 20.1015503855
Zn -1.3071799410 3.7735034240 1.2182902100
Zn -1.3071799410 3.7735034240 3.6548706300
Zn -1.2032147743 3.6127416966 9.6987814793
Zn -2.9533970716 4.4597499376 22.1051718817
Zn 2.6143598430 1.5094013740 1.2182902100
Zn 2.6143598430 1.5094013740 3.6548706300
Zn 1.9450361099 -0.9579691001 7.0185389694
Zn 2.6355590379 1.7071387087 22.1537348720
Zn 1.3071799150 3.7735034240 1.2182902100
Zn 1.3071799150 3.7735034240 3.6548706300
Zn 1.4096325814 3.6436281222 9.8869293117
Zn 1.8212846334 3.7307039512 19.4408306073
Zn 1.3071799410 0.7547006760 1.2182902100
Zn 1.3071799410 0.7547006760 3.6548706300
Zn 2.6790681714 1.3888228691 10.1167451179
Zn 1.8079634721 -0.7822259171 19.4880511668
Zn 0.0000000130 3.0188027260 1.2182902100
Zn 0.0000000130 3.0188027260 3.6548706300
Zn -1.0819071480 1.9501384113 12.3055748475
Zn -0.2901233568 3.3812692173 22.1668386555
Zn 3.9215397970 0.7547006760 1.2182902100
Zn 3.9215397970 0.7547006760 3.6548706300
Zn 4.6970807383 0.7555141041 14.5980122123
Zn 3.1260194635 1.4936587298 19.4438540980
Zn 2.6143598690 3.0188027260 1.2182902100
Zn 2.6143598690 3.0188027260 3.6548706300
Zn 3.2024973314 4.3714966689 12.2922351985
Zn 1.6038213211 5.1245014004 17.0935539592
