62

Zn       1.2182900000      1.3071800000      0.7547010000                 
Zn       1.2182900000      6.5359000000      0.7547010000                 
Zn       1.2225350310     -0.0006420359      3.5706508532                 
Zn       1.2225423776      5.2292954938      3.5699673838                 
Zn       1.2209234059     -1.3076209083      6.0926811248                 
Zn       1.2209966269      3.9219896270      6.0928783505                 
Zn       1.2182900000      3.9215400000      0.7547010000                 
Zn       1.2182900000      9.1502600000      0.7547010000                 
Zn       1.2226333523      2.6145541792      3.5708537815                 
Zn       1.2225301369      7.8431019671      3.5695103797                 
Zn       1.2210023144      1.3071643175      6.0928670599                 
Zn       1.2209189966      6.5360671224      6.0926478279                 
Zn       6.0914510000      1.3071800000      0.7547010000                 
Zn       6.0914510000      6.5359000000      0.7547010000                 
Zn       6.0868516435     -0.0006216009      3.5722672270                 
Zn       6.0868415086      5.2293100849      3.5719329313                 
Zn       6.0886736078     -1.3076996020      6.0940160969                 
Zn       6.0886297575      3.9220114826      6.0943238899                 
Zn       6.0914510000      3.9215400000      0.7547010000                 
Zn       6.0914510000      9.1502600000      0.7547010000                 
Zn       6.0867887086      2.6146270334      3.5726610425                 
Zn       6.0868912166      7.8429790964      3.5712779457                 
Zn       6.0886547715      1.3071348258      6.0942791758                 
Zn       6.0886975214      6.5360924805      6.0940921372                 
Zn       3.6548710000      0.0000000000      1.5094010000                 
Zn       3.6548710000      5.2287200000      1.5094010000                 
Zn       3.6500427037     -1.3076772259      3.7908314736                 
Zn       3.6500425887      3.9221623148      3.7912196419                 
Zn       3.6518681309     -2.6145168909      6.1685292455                 
Zn       3.6519171515      2.6147011594      6.1684315794                 
Zn       3.6548710000      2.6143600000      1.5094010000                 
Zn       3.6548710000      7.8430800000      1.5094010000                 
Zn       3.6501141621      1.3066985140      3.7914155525                 
Zn       3.6499632514      6.5363411705      3.7905807069                 
Zn       3.6519349693     -0.0002917019      6.1684049063                 
Zn       3.6518950906      5.2289263450      6.1685568245                 
Zn       8.5280310000      0.0000000000      1.5094010000                 
Zn       8.5280310000      5.2287200000      1.5094010000                 
Zn       8.5332659877     -1.3077588033      3.7924932823                 
Zn       8.5333340726      3.9220923524      3.7929038815                 
Zn       8.5312072448     -2.6145116765      6.1684447967                 
Zn       8.5312149650      2.6146443379      6.1683048173                 
Zn       8.5280310000      2.6143600000      1.5094010000                 
Zn       8.5280310000      7.8430800000      1.5094010000                 
Zn       8.5332640455      1.3067425823      3.7931288226                 
Zn       8.5333125953      6.5364437853      3.7922187577                 
Zn       8.5311725651     -0.0003212336      6.1682447824                 
Zn       8.5312216843      5.2290068355      6.1684774051                 
H        3.4731843441      4.8600413960     12.7029418158                 
H        3.5709282704      4.8244505818     10.2356084803                 
C        3.4941283103      3.8999127815     12.1841667452                 
C        3.5494686584      3.8843894251     10.7922521065                 
H        3.4224704400      2.7272009366     14.0046696999                 
C        3.4658645928      2.7092255573     12.9159802845                 
H        3.6522594387      3.4955819766      8.1808717353                 
C        3.5768956233      2.6625709718     10.0908882931                 
N        3.6314043694      2.6397346488      8.7140765997                 
C        3.4930069729      1.4949924934     12.2237898499                 
C        3.5482321340      1.4644949382     10.8321915995                 
H        3.4714340963      0.5524987751     12.7739265711                 
H        3.6525065166      1.7669405938      8.2095349295                 
H        3.5694442596      0.5065363954     10.3068928121                 
         
