63
Final Frame from Quantum Espresso Output
Zn 0.0000000000 1.5094010000 1.2182900000
Zn 5.2287200000 1.5094010000 1.2182900000
Zn 0.0014113615 1.5109374357 6.1795454757
Zn 5.2278510493 1.5126562460 6.2026554474
Zn -1.3071800000 3.7735030000 1.2182900000
Zn 3.9215400000 3.7735030000 1.2182900000
Zn -1.3054656736 3.7749803509 6.1702813520
Zn 3.9265827987 3.7764334361 6.0332834506
Zn -2.6143600000 6.0376050000 1.2182900000
Zn 2.6143600000 6.0376050000 1.2182900000
Zn -2.6138510411 6.0388880332 6.1789605778
Zn 2.6173931766 6.0372140346 6.1873610748
Zn -3.9215400000 8.3017080000 1.2182900000
Zn 1.3071800000 8.3017080000 1.2182900000
Zn -3.9206494438 8.3023166034 6.1747832739
Zn 1.3073884232 8.3033960922 6.1715619327
Zn 2.6143600000 1.5094010000 1.2182900000
Zn 7.8430800000 1.5094010000 1.2182900000
Zn 2.6152578963 1.5096061763 6.1392352378
Zn 7.8427066744 1.5111249928 6.1736946307
Zn 1.3071800000 3.7735030000 1.2182900000
Zn 6.5359000000 3.7735030000 1.2182900000
Zn 1.3114278882 3.7732762807 6.1835102527
Zn 6.5363094135 3.7737928298 6.1806576637
Zn 0.0000000000 6.0376050000 1.2182900000
Zn 5.2287200000 6.0376050000 1.2182900000
Zn 0.0022341684 6.0385746747 6.1757464297
Zn 5.2291561119 6.0377281663 6.1838429032
Zn -1.3071800000 8.3017080000 1.2182900000
Zn 3.9215400000 8.3017080000 1.2182900000
Zn -1.3055926813 8.3045755661 6.1762991401
Zn 3.9219385093 8.3026805293 6.1806826147
Zn 1.3059059914 0.7532796513 3.6929595406
Zn 6.5374332592 0.7543701924 3.7019622105
Zn -0.0012014153 3.0198780856 3.6992353330
Zn 5.2362935251 3.0163265947 3.6790971172
Zn -1.3065866981 5.2836658306 3.7006836722
Zn 3.9227851754 5.2917206421 3.6792113411
Zn -2.6138005267 7.5470775745 3.6957138696
Zn 2.6143362326 7.5489475403 3.7017003811
Zn 3.9244500464 0.7526731354 3.6869762468
Zn 9.1500597517 0.7553987526 3.6964916876
Zn 2.6098105742 3.0183633377 3.6734767286
Zn 7.8449282096 3.0195387223 3.7008466462
Zn 1.3067872699 5.2851870951 3.7007753748
Zn 6.5380076914 5.2848752452 3.6967361365
Zn 0.0012598868 7.5480557990 3.7004135867
Zn 5.2297935897 7.5480729574 3.7020554098
C 4.6618092455 5.4322081889 14.4935061119
C 4.3938758586 4.8510064531 13.2214746862
C 4.7981464088 5.4980497775 12.0367748796
C 3.7114993824 3.6221605474 13.1254146999
C 4.5218618365 4.9406732165 10.7982058019
C 3.4352231441 3.0642456108 11.8872447286
C 3.8278020501 3.7155376601 10.6992258354
N 4.8748939185 5.9127597391 15.5363796855
N 3.5857591848 3.1479033355 9.4677780904
H 2.8812239949 2.4225830340 9.3990858912
H 3.6293148024 3.7482146024 8.6493217722
H 3.3984295294 3.1098545631 14.0349311164
H 5.3312405226 6.4466621674 12.1006421278
H 2.9069747078 2.1108235634 11.8290892286
H 4.8411169756 5.4509162214 9.8867292248
