35
Final Frame from Quantum Espresso Output
Zn -1.0735556570 1.0841422360 1.1977635690
Zn -5.3677776710 0.0395003420 3.2510724040
Zn -8.9006725542 -0.8218163031 6.7114886576
Zn -12.9987207046 -1.7192143335 8.1258548231
Zn -1.6915203730 3.6244172340 1.1977635690
Zn -5.9857423860 2.5797753400 3.2510724040
Zn -9.5288728733 1.6948667673 6.7206166741
Zn -13.6062962023 0.8064036507 8.1205512761
Zn 4.4565957100 1.0841422360 1.1977635690
Zn 0.1623736960 0.0395003420 3.2510724040
Zn -4.3128710091 -1.0951312700 5.6609631702
Zn -6.7593924171 -1.6940839899 7.9050923365
Zn 3.8386309950 3.6244172340 1.1977635690
Zn -0.4555910190 2.5797753400 3.2510724040
Zn -4.8879884946 1.4310089587 5.6369738202
Zn -7.4804434484 0.8169562083 8.2473018032
Zn 1.6915202950 0.4114908680 0.8555452660
Zn -2.6027017190 -0.6331510260 2.9088541010
Zn -6.9416323079 -1.6929630829 5.0474168557
Zn -10.7843842221 -2.6003402119 6.7873499809
Zn 1.0735555790 2.9517658660 0.8555452660
Zn -3.2206664340 1.9071239720 2.9088541010
Zn -7.5409522646 0.8683581275 5.0753781731
Zn -11.3770210082 -0.0616490499 6.7884786468
Zn 7.2216716620 0.4114908680 0.8555452660
Zn 2.9274496480 -0.6331510260 2.9088541010
Zn -1.6414055332 -1.7434273983 5.1933073606
Zn -4.3450509429 -2.5096079464 7.9975531821
Zn 6.6037069470 2.9517658660 0.8555452660
Zn 2.3094849330 1.9071239720 2.9088541010
Zn -2.2171777219 0.7965574695 5.1495332364
Zn -4.9515408530 0.0639989289 8.0482577507
O -9.0197308624 0.6539196929 10.1210362540
H -9.3234001994 1.5850212615 10.1979967853
H -9.7611684576 0.2114501126 9.6306592063
