32
Frame from Quantum Espresso Output
Zn -1.0735556570 1.0841422360 1.1977635690
Zn -5.3677776710 0.0395003420 3.2510724040
Zn -9.6629655763 -1.0053767388 5.3076400914
Zn -13.9496186568 -2.0481774608 7.3665297972
Zn -1.6915203730 3.6244172340 1.1977635690
Zn -5.9857423860 2.5797753400 3.2510724040
Zn -10.2809304249 1.5348986510 5.3076406443
Zn -14.5675835015 0.4920982594 7.3665297364
Zn 4.4565957100 1.0841422360 1.1977635690
Zn 0.1623736960 0.0395003420 3.2510724040
Zn -4.1320639899 -1.0051937295 5.3082464450
Zn -8.4197060060 -2.0482352129 7.3665493947
Zn 3.8386309950 3.6244172340 1.1977635690
Zn -0.4555910190 2.5797753400 3.2510724040
Zn -4.7500283739 1.5350815670 5.3082465001
Zn -9.0376706975 0.4920398094 7.3665496892
Zn 1.6915202950 0.4114908680 0.8555452660
Zn -2.6027017190 -0.6331510260 2.9088541010
Zn -6.8987558157 -1.6782378248 4.9580563014
Zn -11.1931545933 -2.7229229231 7.0255425889
Zn 1.0735555790 2.9517658660 0.8555452660
Zn -3.2206664340 1.9071239720 2.9088541010
Zn -7.5167202668 0.8620363085 4.9580565207
Zn -11.8111189908 -0.1826477774 7.0255427585
Zn 7.2216716620 0.4114908680 0.8555452660
Zn 2.9274496480 -0.6331510260 2.9088541010
Zn -1.3687233280 -1.6782677409 4.9582207027
Zn -5.6621135471 -2.7227069552 7.0256898414
Zn 6.6037069470 2.9517658660 0.8555452660
Zn 2.3094849330 1.9071239720 2.9088541010
Zn -1.9866877543 0.8620080560 4.9582208271
Zn -6.2800785088 -0.1824322727 7.0256895665
32
Frame from Quantum Espresso Output
Zn -1.0735556570 1.0841422360 1.1977635690
Zn -5.3677776710 0.0395003420 3.2510724040
Zn -9.6637985703 -1.0055795343 5.3120544421
Zn -13.9423824791 -2.0464170343 7.3762748404
Zn -1.6915203730 3.6244172340 1.1977635690
Zn -5.9857423860 2.5797753400 3.2510724040
Zn -10.2817635446 1.5346960294 5.3120551909
Zn -14.5603474100 0.4938589499 7.3762747703
Zn 4.4565957100 1.0841422360 1.1977635690
Zn 0.1623736960 0.0395003420 3.2510724040
Zn -4.1327494516 -1.0053600474 5.3127753384
Zn -8.4126776019 -2.0465254148 7.3761832998
Zn 3.8386309950 3.6244172340 1.1977635690
Zn -0.4555910190 2.5797753400 3.2510724040
Zn -4.7507137632 1.5349152671 5.3127753477
Zn -9.0306422806 0.4937497115 7.3761836380
Zn 1.6915202950 0.4114908680 0.8555452660
Zn -2.6027017190 -0.6331510260 2.9088541010
Zn -6.9007413549 -1.6787205576 4.9543609922
Zn -11.1948102502 -2.7233249226 7.0364707603
Zn 1.0735555790 2.9517658660 0.8555452660
Zn -3.2206664340 1.9071239720 2.9088541010
Zn -7.5187057228 0.8615535487 4.9543612891
Zn -11.8127746161 -0.1830497018 7.0364709597
Zn 7.2216716620 0.4114908680 0.8555452660
Zn 2.9274496480 -0.6331510260 2.9088541010
Zn -1.3702654723 -1.6786428983 4.9544905708
Zn -5.6640008916 -2.7231658831 7.0366772455
Zn 6.6037069470 2.9517658660 0.8555452660
Zn 2.3094849330 1.9071239720 2.9088541010
Zn -1.9882298374 0.8616332686 4.9544908704
Zn -6.2819658731 -0.1828911947 7.0366769085
32
Frame from Quantum Espresso Output
Zn -1.0735556570 1.0841422360 1.1977635690
Zn -5.3677776710 0.0395003420 3.2510724040
Zn -9.6646529200 -1.0057871769 5.3192742849
Zn -13.9317734363 -2.0438354154 7.3907512526
Zn -1.6915203730 3.6244172340 1.1977635690
Zn -5.9857423860 2.5797753400 3.2510724040
Zn -10.2826178982 1.5344883571 5.3192752506
Zn -14.5497383824 0.4964407211 7.3907511270
Zn 4.4565957100 1.0841422360 1.1977635690
Zn 0.1623736960 0.0395003420 3.2510724040
Zn -4.1339787438 -1.0056583024 5.3203016559
Zn -8.4015453411 -2.0438170640 7.3905775818
Zn 3.8386309950 3.6244172340 1.1977635690
Zn -0.4555910190 2.5797753400 3.2510724040
Zn -4.7519429167 1.5346171294 5.3203016671
Zn -9.0195100182 0.4964579649 7.3905780598
Zn 1.6915202950 0.4114908680 0.8555452660
Zn -2.6027017190 -0.6331510260 2.9088541010
Zn -6.9027820965 -1.6792166888 4.9496612784
Zn -11.1980996662 -2.7241240717 7.0528152277
Zn 1.0735555790 2.9517658660 0.8555452660
Zn -3.2206664340 1.9071239720 2.9088541010
Zn -7.5207464214 0.8610571083 4.9496616844
Zn -11.8160638314 -0.1838488706 7.0528154808
Zn 7.2216716620 0.4114908680 0.8555452660
Zn 2.9274496480 -0.6331510260 2.9088541010
Zn -1.3729457590 -1.6792948218 4.9499744433
Zn -5.6665988202 -2.7237972845 7.0528322463
Zn 6.6037069470 2.9517658660 0.8555452660
Zn 2.3094849330 1.9071239720 2.9088541010
Zn -1.9909099338 0.8609813958 4.9499746825
Zn -6.2845639330 -0.1835227996 7.0528318004
32
Frame from Quantum Espresso Output
Zn -1.0735556570 1.0841422360 1.1977635690
Zn -5.3677776710 0.0395003420 3.2510724040
Zn -9.6663231211 -1.0061927375 5.3313389810
Zn -13.9151270673 -2.0397841715 7.4123851081
Zn -1.6915203730 3.6244172340 1.1977635690
Zn -5.9857423860 2.5797753400 3.2510724040
Zn -10.2842881055 1.5340828487 5.3313403116
Zn -14.5330920351 0.5004922284 7.4123849055
Zn 4.4565957100 1.0841422360 1.1977635690
Zn 0.1623736960 0.0395003420 3.2510724040
Zn -4.1355568174 -1.0060407507 5.3327203743
Zn -8.3850681696 -2.0398082594 7.4119300387
Zn 3.8386309950 3.6244172340 1.1977635690
Zn -0.4555910190 2.5797753400 3.2510724040
Zn -4.7535207478 1.5342348685 5.3327203697
Zn -9.0030328311 0.5004666522 7.4119307424
Zn 1.6915202950 0.4114908680 0.8555452660
Zn -2.6027017190 -0.6331510260 2.9088541010
Zn -6.9060534383 -1.6800122847 4.9442277828
Zn -11.2027660390 -2.7252573756 7.0768310913
Zn 1.0735555790 2.9517658660 0.8555452660
Zn -3.2206664340 1.9071239720 2.9088541010
Zn -7.5240176704 0.8602610709 4.9442283720
Zn -11.8207299033 -0.1849821757 7.0768314212
Zn 7.2216716620 0.4114908680 0.8555452660
Zn 2.9274496480 -0.6331510260 2.9088541010
Zn -1.3757396306 -1.6799748198 4.9446170593
Zn -5.6712576079 -2.7249290993 7.0769004246
Zn 6.6037069470 2.9517658660 0.8555452660
Zn 2.3094849330 1.9071239720 2.9088541010
Zn -1.9937034795 0.8603015722 4.9446172282
Zn -6.2892229556 -0.1846548425 7.0768998090
32
Frame from Quantum Espresso Output
Zn -1.0735556570 1.0841422360 1.1977635690
Zn -5.3677776710 0.0395003420 3.2510724040
Zn -9.6696061856 -1.0069900808 5.3515149216
Zn -13.8895810521 -2.0335666821 7.4443570360
Zn -1.6915203730 3.6244172340 1.1977635690
Zn -5.9857423860 2.5797753400 3.2510724040
Zn -10.2875711852 1.5332855848 5.3515168098
Zn -14.5075460437 0.5067100506 7.4443567047
Zn 4.4565957100 1.0841422360 1.1977635690
Zn 0.1623736960 0.0395003420 3.2510724040
Zn -4.1378479409 -1.0065950955 5.3529892111
Zn -8.3601741847 -2.0337505869 7.4437847856
Zn 3.8386309950 3.6244172340 1.1977635690
Zn -0.4555910190 2.5797753400 3.2510724040
Zn -4.7558115035 1.5336807566 5.3529891531
Zn -8.9781388255 0.5065241862 7.4437858336
Zn 1.6915202950 0.4114908680 0.8555452660
Zn -2.6027017190 -0.6331510260 2.9088541010
Zn -6.9099163121 -1.6809531571 4.9383846702
Zn -11.2100224615 -2.7270196152 7.1122743272
Zn 1.0735555790 2.9517658660 0.8555452660
Zn -3.2206664340 1.9071239720 2.9088541010
Zn -7.5278804353 0.8593196523 4.9383855343
Zn -11.8279858754 -0.1867443966 7.1122747764
Zn 7.2216716620 0.4114908680 0.8555452660
Zn 2.9274496480 -0.6331510260 2.9088541010
Zn -1.3793489799 -1.6808540345 4.9384959270
Zn -5.6781516105 -2.7266031991 7.1125578886
Zn 6.6037069470 2.9517658660 0.8555452660
Zn 2.3094849330 1.9071239720 2.9088541010
Zn -1.9973123080 0.8594226253 4.9384960116
Zn -6.2961173181 -0.1863292514 7.1125570233
32
Frame from Quantum Espresso Output
Zn -1.0735556570 1.0841422360 1.1977635690
Zn -5.3677776710 0.0395003420 3.2510724040
Zn -9.6747543215 -1.0082397702 5.3845970223
Zn -13.8514381271 -2.0242845192 7.4924636288
Zn -1.6915203730 3.6244172340 1.1977635690
Zn -5.9857423860 2.5797753400 3.2510724040
Zn -10.2927193632 1.5320360452 5.3845997819
Zn -14.4694031476 0.5159926841 7.4924630980
Zn 4.4565957100 1.0841422360 1.1977635690
Zn 0.1623736960 0.0395003420 3.2510724040
Zn -4.1418300253 -1.0075584583 5.3866459328
Zn -8.3224102547 -2.0245620273 7.4916925936
Zn 3.8386309950 3.6244172340 1.1977635690
Zn -0.4555910190 2.5797753400 3.2510724040
Zn -4.7597930124 1.5327176917 5.3866457648
Zn -8.9403748735 0.5157125964 7.4916941615
Zn 1.6915202950 0.4114908680 0.8555452660
Zn -2.6027017190 -0.6331510260 2.9088541010
Zn -6.9142819301 -1.6820172390 4.9328582574
Zn -11.2211593988 -2.7297242191 7.1654819501
Zn 1.0735555790 2.9517658660 0.8555452660
Zn -3.2206664340 1.9071239720 2.9088541010
Zn -7.5322459127 0.8582549061 4.9328595398
Zn -11.8391221429 -0.1894489518 7.1654825935
Zn 7.2216716620 0.4114908680 0.8555452660
Zn 2.9274496480 -0.6331510260 2.9088541010
Zn -1.3842241396 -1.6820421793 4.9329272631
Zn -5.6877319868 -2.7289291201 7.1658576735
Zn 6.6037069470 2.9517658660 0.8555452660
Zn 2.3094849330 1.9071239720 2.9088541010
Zn -2.0021866556 0.8582349219 4.9329272482
Zn -6.3056982501 -0.1886555823 7.1658564122
32
Frame from Quantum Espresso Output
Zn -1.0735556570 1.0841422360 1.1977635690
Zn -5.3677776710 0.0395003420 3.2510724040
Zn -9.6837080756 -1.0104120082 5.4397607343
Zn -13.7938118923 -2.0102636973 7.5642760657
Zn -1.6915203730 3.6244172340 1.1977635690
Zn -5.9857423860 2.5797753400 3.2510724040
Zn -10.3016731643 1.5298640183 5.4397648250
Zn -14.4117768898 0.5300140003 7.5642752045
Zn 4.4565957100 1.0841422360 1.1977635690
Zn 0.1623736960 0.0395003420 3.2510724040
Zn -4.1479961581 -1.0090489122 5.4423615522
Zn -8.2664285841 -2.0109437923 7.5630851238
Zn 3.8386309950 3.6244172340 1.1977635690
Zn -0.4555910190 2.5797753400 3.2510724040
Zn -4.7659582742 1.5312275905 5.4423611854
Zn -8.8843931714 0.5293307164 7.5630874869
Zn 1.6915202950 0.4114908680 0.8555452660
Zn -2.6027017190 -0.6331510260 2.9088541010
Zn -6.9196790897 -1.6833328084 4.9311910483
Zn -11.2363006193 -2.7334016020 7.2441293268
Zn 1.0735555790 2.9517658660 0.8555452660
Zn -3.2206664340 1.9071239720 2.9088541010
Zn -7.5376429386 0.8569386804 4.9311929499
Zn -11.8542624078 -0.1931262364 7.2441302982
Zn 7.2216716620 0.4114908680 0.8555452660
Zn 2.9274496480 -0.6331510260 2.9088541010
Zn -1.3892844344 -1.6832765770 4.9308296042
Zn -5.7012523436 -2.7322128568 7.2449634623
Zn 6.6037069470 2.9517658660 0.8555452660
Zn 2.3094849330 1.9071239720 2.9088541010
Zn -2.0072456534 0.8570011563 4.9308294360
Zn -6.3192194555 -0.1919398059 7.2449615741
32
Frame from Quantum Espresso Output
Zn -1.0735556570 1.0841422360 1.1977635690
Zn -5.3677776710 0.0395003420 3.2510724040
Zn -9.6884918746 -1.0115737612 5.4713423258
Zn -13.7682963037 -2.0040543809 7.5975202038
Zn -1.6915203730 3.6244172340 1.1977635690
Zn -5.9857423860 2.5797753400 3.2510724040
Zn -10.3064569606 1.5287023255 5.4713470603
Zn -14.3862612359 0.5362232737 7.5975191804
Zn 4.4565957100 1.0841422360 1.1977635690
Zn 0.1623736960 0.0395003420 3.2510724040
Zn -4.1515969777 -1.0099210635 5.4742058103
Zn -8.2415870422 -2.0048997963 7.5959113672
Zn 3.8386309950 3.6244172340 1.1977635690
Zn -0.4555910190 2.5797753400 3.2510724040
Zn -4.7695586735 1.5303554747 5.4742053027
Zn -8.8595516166 0.5353747836 7.5959140998
Zn 1.6915202950 0.4114908680 0.8555452660
Zn -2.6027017190 -0.6331510260 2.9088541010
Zn -6.9208085419 -1.6836094513 4.9377843374
Zn -11.2405177484 -2.7344262823 7.2794715538
Zn 1.0735555790 2.9517658660 0.8555452660
Zn -3.2206664340 1.9071239720 2.9088541010
Zn -7.5387724203 0.8566621184 4.9377864930
Zn -11.8584791849 -0.1941508763 7.2794727109
Zn 7.2216716620 0.4114908680 0.8555452660
Zn 2.9274496480 -0.6331510260 2.9088541010
Zn -1.3899475103 -1.6834392864 4.9371934802
Zn -5.7051495343 -2.7331607988 7.2805109606
Zn 6.6037069470 2.9517658660 0.8555452660
Zn 2.3094849330 1.9071239720 2.9088541010
Zn -2.0079080556 0.8568386696 4.9371932462
Zn -6.3231170525 -0.1928877867 7.2805087332
32
Frame from Quantum Espresso Output
Zn -1.0735556570 1.0841422360 1.1977635690
Zn -5.3677776710 0.0395003420 3.2510724040
Zn -9.6951723379 -1.0131980717 5.5169065603
Zn -13.7413955128 -1.9975052994 7.6350053078
Zn -1.6915203730 3.6244172340 1.1977635690
Zn -5.9857423860 2.5797753400 3.2510724040
Zn -10.3131374063 1.5270780312 5.5169120404
Zn -14.3593602627 0.5427718500 7.6350040863
Zn 4.4565957100 1.0841422360 1.1977635690
Zn 0.1623736960 0.0395003420 3.2510724040
Zn -4.1561664934 -1.0110296845 5.5201477821
Zn -8.2154158223 -1.9985297506 7.6328414132
Zn 3.8386309950 3.6244172340 1.1977635690
Zn -0.4555910190 2.5797753400 3.2510724040
Zn -4.7741276946 1.5292466898 5.5201470272
Zn -8.8333803833 0.5417451014 7.6328445511
Zn 1.6915202950 0.4114908680 0.8555452660
Zn -2.6027017190 -0.6331510260 2.9088541010
Zn -6.9201031045 -1.6834408092 4.9572269545
Zn -11.2408665544 -2.7345113294 7.3177141676
Zn 1.0735555790 2.9517658660 0.8555452660
Zn -3.2206664340 1.9071239720 2.9088541010
Zn -7.5380671543 0.8568314424 4.9572293229
Zn -11.8588277877 -0.1942358871 7.3177155881
Zn 7.2216716620 0.4114908680 0.8555452660
Zn 2.9274496480 -0.6331510260 2.9088541010
Zn -1.3888355196 -1.6831702229 4.9562691788
Zn -5.7049161512 -2.7331061754 7.3191127288
Zn 6.6037069470 2.9517658660 0.8555452660
Zn 2.3094849330 1.9071239720 2.9088541010
Zn -2.0067952082 0.8571078439 4.9562688705
Zn -6.3228841116 -0.1928329454 7.3191100523
32
Frame from Quantum Espresso Output
Zn -1.0735556570 1.0841422360 1.1977635690
Zn -5.3677776710 0.0395003420 3.2510724040
Zn -9.7043125041 -1.0154239289 5.5861716992
Zn -13.7149072699 -1.9910546625 7.6785091508
Zn -1.6915203730 3.6244172340 1.1977635690
Zn -5.9857423860 2.5797753400 3.2510724040
Zn -10.3222774871 1.5248520192 5.5861780125
Zn -14.3328716441 0.5492211642 7.6785076920
Zn 4.4565957100 1.0841422360 1.1977635690
Zn 0.1623736960 0.0395003420 3.2510724040
Zn -4.1631394629 -1.0127261007 5.5892437720
Zn -8.1894595208 -1.9922084594 7.6751979584
Zn 3.8386309950 3.6244172340 1.1977635690
Zn -0.4555910190 2.5797753400 3.2510724040
Zn -4.7811001024 1.5275497791 5.5892426147
Zn -8.8074240777 0.5480669599 7.6752015156
Zn 1.6915202950 0.4114908680 0.8555452660
Zn -2.6027017190 -0.6331510260 2.9088541010
Zn -6.9165901303 -1.6825896212 4.9995006658
Zn -11.2315474319 -2.7322448173 7.3588119438
Zn 1.0735555790 2.9517658660 0.8555452660
Zn -3.2206664340 1.9071239720 2.9088541010
Zn -7.5345546070 0.8576843403 4.9995031460
Zn -11.8495087590 -0.1919693789 7.3588137495
Zn 7.2216716620 0.4114908680 0.8555452660
Zn 2.9274496480 -0.6331510260 2.9088541010
Zn -1.3844402239 -1.6821020286 4.9976774229
Zn -5.6964897573 -2.7310598341 7.3605516127
Zn 6.6037069470 2.9517658660 0.8555452660
Zn 2.3094849330 1.9071239720 2.9088541010
Zn -2.0023987442 0.8581758455 4.9976769899
Zn -6.3144581720 -0.1907859175 7.3605483100
32
Frame from Quantum Espresso Output
Zn -1.0735556570 1.0841422360 1.1977635690
Zn -5.3677776710 0.0395003420 3.2510724040
Zn -9.7110942043 -1.0170772973 5.6433158300
Zn -13.7095786419 -1.9897549156 7.6997326739
Zn -1.6915203730 3.6244172340 1.1977635690
Zn -5.9857423860 2.5797753400 3.2510724040
Zn -10.3290590293 1.5231982567 5.6433223998
Zn -14.3275426113 0.5505192324 7.6997310922
Zn 4.4565957100 1.0841422360 1.1977635690
Zn 0.1623736960 0.0395003420 3.2510724040
Zn -4.1683037350 -1.0139851185 5.6460621596
Zn -8.1840917369 -1.9908993456 7.6953075734
Zn 3.8386309950 3.6244172340 1.1977635690
Zn -0.4555910190 2.5797753400 3.2510724040
Zn -4.7862641923 1.5262900997 5.6460606365
Zn -8.8020563067 0.5493766090 7.6953112542
Zn 1.6915202950 0.4114908680 0.8555452660
Zn -2.6027017190 -0.6331510260 2.9088541010
Zn -6.9115077232 -1.6813543758 5.0482659664
Zn -11.2123922903 -2.7275851922 7.3736222413
Zn 1.0735555790 2.9517658660 0.8555452660
Zn -3.2206664340 1.9071239720 2.9088541010
Zn -7.5294727207 0.8589217062 5.0482682415
Zn -11.8303541511 -0.1873098703 7.3736243062
Zn 7.2216716620 0.4114908680 0.8555452660
Zn 2.9274496480 -0.6331510260 2.9088541010
Zn -1.3785368559 -1.6806643928 5.0455694068
Zn -5.6788010417 -2.7267612897 7.3755792005
Zn 6.6037069470 2.9517658660 0.8555452660
Zn 2.3094849330 1.9071239720 2.9088541010
Zn -1.9964946375 0.8596128130 5.0455688238
Zn -6.2967695253 -0.1864864722 7.3755754918
32
Frame from Quantum Espresso Output
Zn -1.0735556570 1.0841422360 1.1977635690
Zn -5.3677776710 0.0395003420 3.2510724040
Zn -9.7117787017 -1.0172443061 5.6575679778
Zn -13.7170293978 -1.9915681533 7.6990679733
Zn -1.6915203730 3.6244172340 1.1977635690
Zn -5.9857423860 2.5797753400 3.2510724040
Zn -10.3297434340 1.5230309080 5.6575742422
Zn -14.3349932481 0.5487054406 7.6990664228
Zn 4.4565957100 1.0841422360 1.1977635690
Zn 0.1623736960 0.0395003420 3.2510724040
Zn -4.1694319239 -1.0142610082 5.6597161662
Zn -8.1910990388 -1.9926054132 7.6942387742
Zn 3.8386309950 3.6244172340 1.1977635690
Zn -0.4555910190 2.5797753400 3.2510724040
Zn -4.7873925546 1.5260139980 5.6597145574
Zn -8.8090636467 0.5476705003 7.6942422441
Zn 1.6915202950 0.4114908680 0.8555452660
Zn -2.6027017190 -0.6331510260 2.9088541010
Zn -6.9103484285 -1.6810711781 5.0665430661
Zn -11.2001409741 -2.7246041718 7.3685624271
Zn 1.0735555790 2.9517658660 0.8555452660
Zn -3.2206664340 1.9071239720 2.9088541010
Zn -7.5283136172 0.8592055792 5.0665450711
Zn -11.8181031919 -0.1843289903 7.3685644799
Zn 7.2216716620 0.4114908680 0.8555452660
Zn 2.9274496480 -0.6331510260 2.9088541010
Zn -1.3772384810 -1.6803459313 5.0633909346
Zn -5.6679388671 -2.7241198693 7.3703303387
Zn 6.6037069470 2.9517658660 0.8555452660
Zn 2.3094849330 1.9071239720 2.9088541010
Zn -1.9951962465 0.8599307424 5.0633902214
Zn -6.2859071468 -0.1838447837 7.3703266350
32
Frame from Quantum Espresso Output
Zn -1.0735556570 1.0841422360 1.1977635690
Zn -5.3677776710 0.0395003420 3.2510724040
Zn -9.7108261334 -1.0170117488 5.6566363221
Zn -13.7229443840 -1.9930091096 7.6961702995
Zn -1.6915203730 3.6244172340 1.1977635690
Zn -5.9857423860 2.5797753400 3.2510724040
Zn -10.3287908242 1.5232632407 5.6566421790
Zn -14.3409082458 0.5472645381 7.6961688220
Zn 4.4565957100 1.0841422360 1.1977635690
Zn 0.1623736960 0.0395003420 3.2510724040
Zn -4.1691669923 -1.0141968217 5.6584884835
Zn -8.1966779071 -1.9939650136 7.6912734060
Zn 3.8386309950 3.6244172340 1.1977635690
Zn -0.4555910190 2.5797753400 3.2510724040
Zn -4.7871278498 1.5260782284 5.6584869070
Zn -8.8146425508 0.5463106211 7.6912766310
Zn 1.6915202950 0.4114908680 0.8555452660
Zn -2.6027017190 -0.6331510260 2.9088541010
Zn -6.9116310504 -1.6813814988 5.0693508811
Zn -11.1943734951 -2.7231997421 7.3633282438
Zn 1.0735555790 2.9517658660 0.8555452660
Zn -3.2206664340 1.9071239720 2.9088541010
Zn -7.5295962479 0.8588951652 5.0693526707
Zn -11.8123358721 -0.1829246779 7.3633301997
Zn 7.2216716620 0.4114908680 0.8555452660
Zn 2.9274496480 -0.6331510260 2.9088541010
Zn -1.3787338868 -1.6807077784 5.0661478068
Zn -5.6626553207 -2.7228330259 7.3647909883
Zn 6.6037069470 2.9517658660 0.8555452660
Zn 2.3094849330 1.9071239720 2.9088541010
Zn -1.9966918484 0.8595685726 5.0661469737
Zn -6.2806233828 -0.1825579999 7.3647874066
32
Frame from Quantum Espresso Output
Zn -1.0735556570 1.0841422360 1.1977635690
Zn -5.3677776710 0.0395003420 3.2510724040
Zn -9.7092130508 -1.0166173912 5.6519905939
Zn -13.7294279777 -1.9945898881 7.6936009908
Zn -1.6915203730 3.6244172340 1.1977635690
Zn -5.9857423860 2.5797753400 3.2510724040
Zn -10.3271776973 1.5236573202 5.6519958026
Zn -14.3473918942 0.5456840511 7.6935996280
Zn 4.4565957100 1.0841422360 1.1977635690
Zn 0.1623736960 0.0395003420 3.2510724040
Zn -4.1685177430 -1.0140387201 5.6535271898
Zn -8.2029283109 -1.9954897369 7.6887250277
Zn 3.8386309950 3.6244172340 1.1977635690
Zn -0.4555910190 2.5797753400 3.2510724040
Zn -4.7864789545 1.5262364772 5.6535257007
Zn -8.8208930095 0.5447854072 7.6887278706
Zn 1.6915202950 0.4114908680 0.8555452660
Zn -2.6027017190 -0.6331510260 2.9088541010
Zn -6.9149289891 -1.6821808836 5.0687015680
Zn -11.1878316438 -2.7216055132 7.3578102333
Zn 1.0735555790 2.9517658660 0.8555452660
Zn -3.2206664340 1.9071239720 2.9088541010
Zn -7.5328941378 0.8580953729 5.0687030520
Zn -11.8057941934 -0.1813306097 7.3578120207
Zn 7.2216716620 0.4114908680 0.8555452660
Zn 2.9274496480 -0.6331510260 2.9088541010
Zn -1.3822812884 -1.6815678761 5.0656215047
Zn -5.6565606688 -2.7213468912 7.3587904060
Zn 6.6037069470 2.9517658660 0.8555452660
Zn 2.3094849330 1.9071239720 2.9088541010
Zn -2.0002396062 0.8587080767 5.0656204781
Zn -6.2745283951 -0.1810720580 7.3587870385
32
Frame from Quantum Espresso Output
Zn -1.0735556570 1.0841422360 1.1977635690
Zn -5.3677776710 0.0395003420 3.2510724040
Zn -9.7073509753 -1.0161599108 5.6528005503
Zn -13.7347144135 -1.9958823180 7.6996633838
Zn -1.6915203730 3.6244172340 1.1977635690
Zn -5.9857423860 2.5797753400 3.2510724040
Zn -10.3253155386 1.5241143163 5.6528045736
Zn -14.3526784022 0.5443921772 7.6996622143
Zn 4.4565957100 1.0841422360 1.1977635690
Zn 0.1623736960 0.0395003420 3.2510724040
Zn -4.1684548225 -1.0140224197 5.6537609300
Zn -8.2074811526 -1.9966056056 7.6948078268
Zn 3.8386309950 3.6244172340 1.1977635690
Zn -0.4555910190 2.5797753400 3.2510724040
Zn -4.7864166657 1.5262530497 5.6537595884
Zn -8.8254459438 0.5436686307 7.6948099676
Zn 1.6915202950 0.4114908680 0.8555452660
Zn -2.6027017190 -0.6331510260 2.9088541010
Zn -6.9224520190 -1.6840049415 5.0703509188
Zn -11.1751457977 -2.7185124056 7.3579519903
Zn 1.0735555790 2.9517658660 0.8555452660
Zn -3.2206664340 1.9071239720 2.9088541010
Zn -7.5404170809 0.8562705490 5.0703518273
Zn -11.7931086648 -0.1782378009 7.3579534834
Zn 7.2216716620 0.4114908680 0.8555452660
Zn 2.9274496480 -0.6331510260 2.9088541010
Zn -1.3906878369 -1.6836071694 5.0673758250
Zn -5.6444408449 -2.7183906662 7.3579136161
Zn 6.6037069470 2.9517658660 0.8555452660
Zn 2.3094849330 1.9071239720 2.9088541010
Zn -2.0086467379 0.8566680789 5.0673743809
Zn -6.2624079540 -0.1781161810 7.3579106069
32
Frame from Quantum Espresso Output
Zn -1.0735556570 1.0841422360 1.1977635690
Zn -5.3677776710 0.0395003420 3.2510724040
Zn -9.7054820779 -1.0156995345 5.6534322624
Zn -13.7359659594 -1.9961941028 7.7109960264
Zn -1.6915203730 3.6244172340 1.1977635690
Zn -5.9857423860 2.5797753400 3.2510724040
Zn -10.3234465698 1.5245743742 5.6534349973
Zn -14.3539300346 0.5440810912 7.7109950507
Zn 4.4565957100 1.0841422360 1.1977635690
Zn 0.1623736960 0.0395003420 3.2510724040
Zn -4.1684372252 -1.0140162259 5.6539307738
Zn -8.2081486968 -1.9967781922 7.7062872145
Zn 3.8386309950 3.6244172340 1.1977635690
Zn -0.4555910190 2.5797753400 3.2510724040
Zn -4.7863997635 1.5262595133 5.6539296128
Zn -8.8261136085 0.5434952131 7.7062885949
Zn 1.6915202950 0.4114908680 0.8555452660
Zn -2.6027017190 -0.6331510260 2.9088541010
Zn -6.9324412287 -1.6864276079 5.0695430829
Zn -11.1632202834 -2.7156024207 7.3628125171
Zn 1.0735555790 2.9517658660 0.8555452660
Zn -3.2206664340 1.9071239720 2.9088541010
Zn -7.5504061545 0.8538469679 5.0695434137
Zn -11.7811834887 -0.1753280461 7.3628136980
Zn 7.2216716620 0.4114908680 0.8555452660
Zn 2.9274496480 -0.6331510260 2.9088541010
Zn -1.4015101572 -1.6862333316 5.0669272718
Zn -5.6328928972 -2.7155714007 7.3616480458
Zn 6.6037069470 2.9517658660 0.8555452660
Zn 2.3094849330 1.9071239720 2.9088541010
Zn -2.0194697691 0.8540413761 5.0669253919
Zn -6.2508593127 -0.1752972408 7.3616454519
32
Frame from Quantum Espresso Output
Zn -1.0735556570 1.0841422360 1.1977635690
Zn -5.3677776710 0.0395003420 3.2510724040
Zn -9.7046512930 -1.0154923701 5.6580889580
Zn -13.7318377270 -1.9951963162 7.7261514514
Zn -1.6915203730 3.6244172340 1.1977635690
Zn -5.9857423860 2.5797753400 3.2510724040
Zn -10.3226157414 1.5247815532 5.6580907445
Zn -14.3498018322 0.5450793366 7.7261505927
Zn 4.4565957100 1.0841422360 1.1977635690
Zn 0.1623736960 0.0395003420 3.2510724040
Zn -4.1689403956 -1.0141363944 5.6583191731
Zn -8.2034593793 -1.9956466112 7.7216805611
Zn 3.8386309950 3.6244172340 1.1977635690
Zn -0.4555910190 2.5797753400 3.2510724040
Zn -4.7869034624 1.5261394260 5.6583181465
Zn -8.8214244007 0.5446264691 7.7216813742
Zn 1.6915202950 0.4114908680 0.8555452660
Zn -2.6027017190 -0.6331510260 2.9088541010
Zn -6.9413372234 -1.6885848717 5.0706671123
Zn -11.1547761374 -2.7135404834 7.3722718601
Zn 1.0735555790 2.9517658660 0.8555452660
Zn -3.2206664340 1.9071239720 2.9088541010
Zn -7.5593020543 0.8516891791 5.0706670490
Zn -11.7727396639 -0.1732661623 7.3722728333
Zn 7.2216716620 0.4114908680 0.8555452660
Zn 2.9274496480 -0.6331510260 2.9088541010
Zn -1.4112826630 -1.6886046607 5.0684732496
Zn -5.6243887454 -2.7134936608 7.3702116603
Zn 6.6037069470 2.9517658660 0.8555452660
Zn 2.3094849330 1.9071239720 2.9088541010
Zn -2.0292428668 0.8516698936 5.0684710804
Zn -6.2423546022 -0.1732195588 7.3702093825
32
Frame from Quantum Espresso Output
Zn -1.0735556570 1.0841422360 1.1977635690
Zn -5.3677776710 0.0395003420 3.2510724040
Zn -9.7050793756 -1.0155936198 5.6660710067
Zn -13.7247163559 -1.9934681876 7.7393614926
Zn -1.6915203730 3.6244172340 1.1977635690
Zn -5.9857423860 2.5797753400 3.2510724040
Zn -10.3230438108 1.5246806084 5.6660724354
Zn -14.3426804179 0.5468074971 7.7393606486
Zn 4.4565957100 1.0841422360 1.1977635690
Zn 0.1623736960 0.0395003420 3.2510724040
Zn -4.1698517652 -1.0143563462 5.6662574967
Zn -8.1961774174 -1.9938806493 7.7350425607
Zn 3.8386309950 3.6244172340 1.1977635690
Zn -0.4555910190 2.5797753400 3.2510724040
Zn -4.7878150521 1.5259193278 5.6662565141
Zn -8.8141425087 0.5463927066 7.7350431478
Zn 1.6915202950 0.4114908680 0.8555452660
Zn -2.6027017190 -0.6331510260 2.9088541010
Zn -6.9464433852 -1.6898226404 5.0755026937
Zn -11.1510062786 -2.7126195379 7.3816873481
Zn 1.0735555790 2.9517658660 0.8555452660
Zn -3.2206664340 1.9071239720 2.9088541010
Zn -7.5644082066 0.8504514974 5.0755025116
Zn -11.7689700516 -0.1723450851 7.3816882737
Zn 7.2216716620 0.4114908680 0.8555452660
Zn 2.9274496480 -0.6331510260 2.9088541010
Zn -1.4165835738 -1.6898900194 5.0737132226
Zn -5.6206253040 -2.7125734839 7.3792549805
Zn 6.6037069470 2.9517658660 0.8555452660
Zn 2.3094849330 1.9071239720 2.9088541010
Zn -2.0345440791 0.8503847611 5.0737109976
Zn -6.2385908805 -0.1722991476 7.3792528289
32
Frame from Quantum Espresso Output
Zn -1.0735556570 1.0841422360 1.1977635690
Zn -5.3677776710 0.0395003420 3.2510724040
Zn -9.7055959786 -1.0157158399 5.6740961764
Zn -13.7157059889 -1.9912819477 7.7530041522
Zn -1.6915203730 3.6244172340 1.1977635690
Zn -5.9857423860 2.5797753400 3.2510724040
Zn -10.3235604050 1.5245589662 5.6740973180
Zn -14.3336699698 0.5489935905 7.7530033006
Zn 4.4565957100 1.0841422360 1.1977635690
Zn 0.1623736960 0.0395003420 3.2510724040
Zn -4.1706809943 -1.0145559117 5.6744631111
Zn -8.1869944358 -1.9916527551 7.7489954305
Zn 3.8386309950 3.6244172340 1.1977635690
Zn -0.4555910190 2.5797753400 3.2510724040
Zn -4.7886445025 1.5257194431 5.6744621751
Zn -8.8049595984 0.5486213068 7.7489958235
Zn 1.6915202950 0.4114908680 0.8555452660
Zn -2.6027017190 -0.6331510260 2.9088541010
Zn -6.9518838474 -1.6911409891 5.0827328646
Zn -11.1483715036 -2.7119754461 7.3906253281
Zn 1.0735555790 2.9517658660 0.8555452660
Zn -3.2206664340 1.9071239720 2.9088541010
Zn -7.5698486857 0.8491335625 5.0827326430
Zn -11.7663356164 -0.1717007126 7.3906262362
Zn 7.2216716620 0.4114908680 0.8555452660
Zn 2.9274496480 -0.6331510260 2.9088541010
Zn -1.4221124471 -1.6912293875 5.0815986599
Zn -5.6177642619 -2.7118735343 7.3879343933
Zn 6.6037069470 2.9517658660 0.8555452660
Zn 2.3094849330 1.9071239720 2.9088541010
Zn -2.0400733402 0.8490459081 5.0815965164
Zn -6.2357295350 -0.1715987150 7.3879323868
32
Frame from Quantum Espresso Output
Zn -1.0735556570 1.0841422360 1.1977635690
Zn -5.3677776710 0.0395003420 3.2510724040
Zn -9.7053811948 -1.0156608577 5.6754762129
Zn -13.7105649660 -1.9900354856 7.7584417052
Zn -1.6915203730 3.6244172340 1.1977635690
Zn -5.9857423860 2.5797753400 3.2510724040
Zn -10.3233456121 1.5246145059 5.6754771874
Zn -14.3285288843 0.5502398360 7.7584408466
Zn 4.4565957100 1.0841422360 1.1977635690
Zn 0.1623736960 0.0395003420 3.2510724040
Zn -4.1708268711 -1.0145898258 5.6760146437
Zn -8.1816539840 -1.9903573946 7.7547992338
Zn 3.8386309950 3.6244172340 1.1977635690
Zn -0.4555910190 2.5797753400 3.2510724040
Zn -4.7887905553 1.5256852052 5.6760137624
Zn -8.7996191801 0.5499174336 7.7547995056
Zn 1.6915202950 0.4114908680 0.8555452660
Zn -2.6027017190 -0.6331510260 2.9088541010
Zn -6.9555178630 -1.6920208703 5.0882851511
Zn -11.1477541334 -2.7118248991 7.3921484896
Zn 1.0735555790 2.9517658660 0.8555452660
Zn -3.2206664340 1.9071239720 2.9088541010
Zn -7.5734827223 0.8482541684 5.0882849679
Zn -11.7657185415 -0.1715498768 7.3921493856
Zn 7.2216716620 0.4114908680 0.8555452660
Zn 2.9274496480 -0.6331510260 2.9088541010
Zn -1.4256827207 -1.6920931031 5.0877435650
Zn -5.6170829582 -2.7117066323 7.3893713048
Zn 6.6037069470 2.9517658660 0.8555452660
Zn 2.3094849330 1.9071239720 2.9088541010
Zn -2.0436439900 0.8481827313 5.0877416181
Zn -6.2350480060 -0.1714313394 7.3893694441
32
Frame from Quantum Espresso Output
Zn -1.0735556570 1.0841422360 1.1977635690
Zn -5.3677776710 0.0395003420 3.2510724040
Zn -9.7042080134 -1.0153711397 5.6720778432
Zn -13.7063260660 -1.9890105045 7.7617243938
Zn -1.6915203730 3.6244172340 1.1977635690
Zn -5.9857423860 2.5797753400 3.2510724040
Zn -10.3221723950 1.5249048854 5.6720784654
Zn -14.3242899351 0.5512646096 7.7617235823
Zn 4.4565957100 1.0841422360 1.1977635690
Zn 0.1623736960 0.0395003420 3.2510724040
Zn -4.1705268687 -1.0145149418 5.6727915493
Zn -8.1770118221 -1.9892332394 7.7586654034
Zn 3.8386309950 3.6244172340 1.1977635690
Zn -0.4555910190 2.5797753400 3.2510724040
Zn -4.7884908856 1.5257597155 5.6727907850
Zn -8.7949770505 0.5510425168 7.7586654382
Zn 1.6915202950 0.4114908680 0.8555452660
Zn -2.6027017190 -0.6331510260 2.9088541010
Zn -6.9608952406 -1.6933225078 5.0942254496
Zn -11.1467429654 -2.7115791851 7.3894472108
Zn 1.0735555790 2.9517658660 0.8555452660
Zn -3.2206664340 1.9071239720 2.9088541010
Zn -7.5788601064 0.8469530772 5.0942252915
Zn -11.7647077804 -0.1713038173 7.3894480266
Zn 7.2216716620 0.4114908680 0.8555452660
Zn 2.9274496480 -0.6331510260 2.9088541010
Zn -1.4310505063 -1.6933915680 5.0945838731
Zn -5.6160670003 -2.7114581978 7.3864802446
Zn 6.6037069470 2.9517658660 0.8555452660
Zn 2.3094849330 1.9071239720 2.9088541010
Zn -2.0490123969 0.8468848979 5.0945822283
Zn -6.2340316951 -0.1711823522 7.3864786640
32
Frame from Quantum Espresso Output
Zn -1.0735556570 1.0841422360 1.1977635690
Zn -5.3677776710 0.0395003420 3.2510724040
Zn -9.7015142175 -1.0147084494 5.6625495628
Zn -13.7035528490 -1.9883457932 7.7631368666
Zn -1.6915203730 3.6244172340 1.1977635690
Zn -5.9857423860 2.5797753400 3.2510724040
Zn -10.3194785055 1.5255682396 5.6625493863
Zn -14.3215167137 0.5519291643 7.7631361746
Zn 4.4565957100 1.0841422360 1.1977635690
Zn 0.1623736960 0.0395003420 3.2510724040
Zn -4.1696529227 -1.0142996152 5.6633271183
Zn -8.1734492217 -1.9883746999 7.7610240233
Zn 3.8386309950 3.6244172340 1.1977635690
Zn -0.4555910190 2.5797753400 3.2510724040
Zn -4.7876175987 1.5259746392 5.6633265916
Zn -8.7914144707 0.5519020054 7.7610235568
Zn 1.6915202950 0.4114908680 0.8555452660
Zn -2.6027017190 -0.6331510260 2.9088541010
Zn -6.9701268134 -1.6955570825 5.1020373119
Zn -11.1432013030 -2.7107180691 7.3804912195
Zn 1.0735555790 2.9517658660 0.8555452660
Zn -3.2206664340 1.9071239720 2.9088541010
Zn -7.5880916512 0.8447190183 5.1020370814
Zn -11.7611667273 -0.1704423396 7.3804918092
Zn 7.2216716620 0.4114908680 0.8555452660
Zn 2.9274496480 -0.6331510260 2.9088541010
Zn -1.4403321968 -1.6956370441 5.1036780510
Zn -5.6128557666 -2.7106748522 7.3771500449
Zn 6.6037069470 2.9517658660 0.8555452660
Zn 2.3094849330 1.9071239720 2.9088541010
Zn -2.0582951484 0.8446400237 5.1036768321
Zn -6.2308198612 -0.1703984385 7.3771490150
32
Frame from Quantum Espresso Output
Zn -1.0735556570 1.0841422360 1.1977635690
Zn -5.3677776710 0.0395003420 3.2510724040
Zn -9.7001496364 -1.0143726307 5.6575841287
Zn -13.7039401869 -1.9884444604 7.7639594603
Zn -1.6915203730 3.6244172340 1.1977635690
Zn -5.9857423860 2.5797753400 3.2510724040
Zn -10.3181138404 1.5259039316 5.6575833806
Zn -14.3219041141 0.5518306047 7.7639588781
Zn 4.4565957100 1.0841422360 1.1977635690
Zn 0.1623736960 0.0395003420 3.2510724040
Zn -4.1692910024 -1.0142104357 5.6582876603
Zn -8.1734108855 -1.9883689794 7.7622517178
Zn 3.8386309950 3.6244172340 1.1977635690
Zn -0.4555910190 2.5797753400 3.2510724040
Zn -4.7872560813 1.5260638473 5.6582872751
Zn -8.7913761202 0.5519075823 7.7622509174
Zn 1.6915202950 0.4114908680 0.8555452660
Zn -2.6027017190 -0.6331510260 2.9088541010
Zn -6.9752157629 -1.6967894901 5.1041716104
Zn -11.1395651610 -2.7098328660 7.3758638404
Zn 1.0735555790 2.9517658660 0.8555452660
Zn -3.2206664340 1.9071239720 2.9088541010
Zn -7.5931805516 0.8434864382 5.1041712358
Zn -11.7575307897 -0.1695571937 7.3758642318
Zn 7.2216716620 0.4114908680 0.8555452660
Zn 2.9274496480 -0.6331510260 2.9088541010
Zn -1.4456246989 -1.6969183400 5.1063476988
Zn -5.6093722919 -2.7098257210 7.3722427666
Zn 6.6037069470 2.9517658660 0.8555452660
Zn 2.3094849330 1.9071239720 2.9088541010
Zn -2.0635881415 0.8433585469 5.1063465749
Zn -6.2273360961 -0.1695493839 7.3722420509
32
Frame from Quantum Espresso Output
Zn -1.0735556570 1.0841422360 1.1977635690
Zn -5.3677776710 0.0395003420 3.2510724040
Zn -9.6997849264 -1.0142825461 5.6550003884
Zn -13.7050631755 -1.9887183040 7.7631749959
Zn -1.6915203730 3.6244172340 1.1977635690
Zn -5.9857423860 2.5797753400 3.2510724040
Zn -10.3177490701 1.5259936107 5.6549994015
Zn -14.3230271831 0.5515568819 7.7631744832
Zn 4.4565957100 1.0841422360 1.1977635690
Zn 0.1623736960 0.0395003420 3.2510724040
Zn -4.1692420112 -1.0141983415 5.6555991681
Zn -8.1744220086 -1.9886146116 7.7615911942
Zn 3.8386309950 3.6244172340 1.1977635690
Zn -0.4555910190 2.5797753400 3.2510724040
Zn -4.7872072471 1.5260761225 5.6555988514
Zn -8.7923871926 0.5516614597 7.7615902754
Zn 1.6915202950 0.4114908680 0.8555452660
Zn -2.6027017190 -0.6331510260 2.9088541010
Zn -6.9768486322 -1.6971847892 5.1037602913
Zn -11.1379525271 -2.7094408230 7.3729624944
Zn 1.0735555790 2.9517658660 0.8555452660
Zn -3.2206664340 1.9071239720 2.9088541010
Zn -7.5948133828 0.8430908029 5.1037598422
Zn -11.7559181147 -0.1691653509 7.3729627575
Zn 7.2216716620 0.4114908680 0.8555452660
Zn 2.9274496480 -0.6331510260 2.9088541010
Zn -1.4473227449 -1.6973293513 5.1059965296
Zn -5.6078777470 -2.7094622302 7.3693252982
Zn 6.6037069470 2.9517658660 0.8555452660
Zn 2.3094849330 1.9071239720 2.9088541010
Zn -2.0652862940 0.8429471115 5.1059954243
Zn -6.2258415229 -0.1691862097 7.3693247165
32
Frame from Quantum Espresso Output
Zn -1.0735556570 1.0841422360 1.1977635690
Zn -5.3677776710 0.0395003420 3.2510724040
Zn -9.6997933970 -1.0142840196 5.6513536463
Zn -13.7072340587 -1.9892449478 7.7599039545
Zn -1.6915203730 3.6244172340 1.1977635690
Zn -5.9857423860 2.5797753400 3.2510724040
Zn -10.3177574621 1.5259913542 5.6513525286
Zn -14.3251982172 0.5510303851 7.7599035579
Zn 4.4565957100 1.0841422360 1.1977635690
Zn 0.1623736960 0.0395003420 3.2510724040
Zn -4.1693980069 -1.0142366875 5.6517554437
Zn -8.1765603972 -1.9891311354 7.7583865129
Zn 3.8386309950 3.6244172340 1.1977635690
Zn -0.4555910190 2.5797753400 3.2510724040
Zn -4.7873633254 1.5260381297 5.6517551910
Zn -8.7945254544 0.5511440112 7.7583855680
Zn 1.6915202950 0.4114908680 0.8555452660
Zn -2.6027017190 -0.6331510260 2.9088541010
Zn -6.9771372861 -1.6972539748 5.1015389240
Zn -11.1372612207 -2.7092745210 7.3681532079
Zn 1.0735555790 2.9517658660 0.8555452660
Zn -3.2206664340 1.9071239720 2.9088541010
Zn -7.5951019832 0.8430210325 5.1015384393
Zn -11.7552265846 -0.1689994377 7.3681532979
Zn 7.2216716620 0.4114908680 0.8555452660
Zn 2.9274496480 -0.6331510260 2.9088541010
Zn -1.4476190976 -1.6974004079 5.1035951865
Zn -5.6073907655 -2.7093458332 7.3647087659
Zn 6.6037069470 2.9517658660 0.8555452660
Zn 2.3094849330 1.9071239720 2.9088541010
Zn -2.0655825929 0.8428752633 5.1035941222
Zn -6.2253546955 -0.1690704385 7.3647083007
32
Frame from Quantum Espresso Output
Zn -1.0735556570 1.0841422360 1.1977635690
Zn -5.3677776710 0.0395003420 3.2510724040
Zn -9.6997933970 -1.0142840196 5.6513536463
Zn -13.7072340587 -1.9892449478 7.7599039545
Zn -1.6915203730 3.6244172340 1.1977635690
Zn -5.9857423860 2.5797753400 3.2510724040
Zn -10.3177574621 1.5259913542 5.6513525286
Zn -14.3251982172 0.5510303851 7.7599035579
Zn 4.4565957100 1.0841422360 1.1977635690
Zn 0.1623736960 0.0395003420 3.2510724040
Zn -4.1693980069 -1.0142366875 5.6517554437
Zn -8.1765603972 -1.9891311354 7.7583865129
Zn 3.8386309950 3.6244172340 1.1977635690
Zn -0.4555910190 2.5797753400 3.2510724040
Zn -4.7873633254 1.5260381297 5.6517551910
Zn -8.7945254544 0.5511440112 7.7583855680
Zn 1.6915202950 0.4114908680 0.8555452660
Zn -2.6027017190 -0.6331510260 2.9088541010
Zn -6.9771372861 -1.6972539748 5.1015389240
Zn -11.1372612207 -2.7092745210 7.3681532079
Zn 1.0735555790 2.9517658660 0.8555452660
Zn -3.2206664340 1.9071239720 2.9088541010
Zn -7.5951019832 0.8430210325 5.1015384393
Zn -11.7552265846 -0.1689994377 7.3681532979
Zn 7.2216716620 0.4114908680 0.8555452660
Zn 2.9274496480 -0.6331510260 2.9088541010
Zn -1.4476190976 -1.6974004079 5.1035951865
Zn -5.6073907655 -2.7093458332 7.3647087659
Zn 6.6037069470 2.9517658660 0.8555452660
Zn 2.3094849330 1.9071239720 2.9088541010
Zn -2.0655825929 0.8428752633 5.1035941222
Zn -6.2253546955 -0.1690704385 7.3647083007
