62
Frame from Quantum Espresso Output
Zn -1.0735560000 1.0841420000 1.1977640000
Zn -2.3094850000 6.1646920000 1.1977640000
Zn -4.4738450312 0.2641256067 4.3619347360
Zn -5.6930335777 5.3494907748 4.3294535957
Zn -8.4627918753 -0.7147179823 5.9254615969
Zn -9.6881079098 4.3751012538 5.9384279068
Zn -1.6915200000 3.6244170000 1.1977640000
Zn -2.9274500000 8.7049670000 1.1977640000
Zn -5.0832498337 2.8021815213 4.3512848250
Zn -6.3159810146 7.8915725642 4.3545933945
Zn -9.1016389203 1.8321905557 5.8632312739
Zn -10.3146132483 6.9012264220 5.9756058675
Zn 4.4565960000 1.0841420000 1.1977640000
Zn 3.2206660000 6.1646920000 1.1977640000
Zn 0.2738294314 0.0983927968 3.6044635351
Zn -0.9958526155 5.1650608497 3.5909985046
Zn -2.3901654871 -0.5671193060 5.7825065742
Zn -3.6310375882 4.5149463241 5.8004513683
Zn 3.8386310000 3.6244170000 1.1977640000
Zn 2.6027020000 8.7049670000 1.1977640000
Zn -0.3494834029 2.6285643112 3.6253624919
Zn -1.6237079084 7.7064599597 3.5976758155
Zn -3.0186247169 1.9812591245 5.7895461510
Zn -4.2438876359 7.0583362884 5.8006061957
Zn 1.6915200000 0.4114910000 0.8555450000
Zn 0.4555910000 5.4920410000 0.8555450000
Zn -2.3626309645 -0.5625900406 2.9008319497
Zn -3.5957455108 4.4989462170 2.9107943010
Zn -6.3049960586 -1.5334839036 4.6002980119
Zn -7.5271364073 3.5555442448 4.5757117808
Zn 1.0735560000 2.9517660000 0.8555450000
Zn -0.1623740000 8.0323160000 0.8555450000
Zn -2.9771399440 1.9680832185 2.9080725865
Zn -4.2106647646 7.0487681129 2.9066417517
Zn -6.9235395990 1.0076155107 4.5750906778
Zn -8.1469029283 6.0982158637 4.5962759164
Zn 7.2216720000 0.4114910000 0.8555450000
Zn 5.9857420000 5.4920410000 0.8555450000
Zn 2.8221768335 -0.6571641138 3.0001864020
Zn 1.5827270060 4.4336114505 3.0065423006
Zn 0.1097474081 -1.2906158331 5.9316684140
Zn -1.1269016145 3.7899800794 5.9234479953
Zn 6.6037070000 2.9517660000 0.8555450000
Zn 5.3677780000 8.0323160000 0.8555450000
Zn 2.2376856052 1.8986138016 2.9624316250
Zn 0.9733855767 6.9715475081 3.0003344243
Zn -0.5472176722 1.2415280428 5.9579910382
Zn -1.7514331799 6.3225992386 5.9036621896
C -9.8921495075 2.5320970632 11.2065513789
N -10.0362595536 1.5335040110 8.9889730681
C -9.7851540846 2.3737665717 12.5857847527
C -9.7393118881 1.4316595769 10.3389824918
H -10.1164919562 3.5094770614 10.7823036058
H -9.9539999387 2.4663934023 8.5792788807
C -9.4944873317 1.1254040350 13.1467242453
C -9.3637667976 0.1983197166 10.9073860191
C -9.2591496517 0.0463744581 12.2858838156
H -9.9156877309 3.2512751572 13.2230538507
H -9.6128251854 0.8233277258 8.3867179411
H -9.4419120774 0.9964781345 14.2297054154
H -9.1723255527 -0.6455551188 10.2450377659
H -8.9707919719 -0.9297708270 12.6823164154
62
Frame from Quantum Espresso Output
Zn -1.0735560000 1.0841420000 1.1977640000
Zn -2.3094850000 6.1646920000 1.1977640000
Zn -4.4703077347 0.2647671256 4.3590452594
Zn -5.6909924408 5.3499466163 4.3280164060
Zn -8.4620991310 -0.7143563755 5.9255162421
Zn -9.6872675321 4.3742679439 5.9378701595
Zn -1.6915200000 3.6244170000 1.1977640000
Zn -2.9274500000 8.7049670000 1.1977640000
Zn -5.0806659289 2.8030349695 4.3491944674
Zn -6.3133712693 7.8918253632 4.3521285156
Zn -9.0994370319 1.8318640122 5.8595674466
Zn -10.3132943477 6.9024669880 5.9732987501
Zn 4.4565960000 1.0841420000 1.1977640000
Zn 3.2206660000 6.1646920000 1.1977640000
Zn 0.2720720698 0.0974863560 3.6004893056
Zn -0.9950445518 5.1642242769 3.5861165601
Zn -2.3900451832 -0.5669537865 5.7791416689
Zn -3.6307672732 4.5152021910 5.7961168141
Zn 3.8386310000 3.6244170000 1.1977640000
Zn 2.6027020000 8.7049670000 1.1977640000
Zn -0.3503260506 2.6269906634 3.6192793438
Zn -1.6222396324 7.7066721950 3.5926141810
Zn -3.0179616102 1.9811268383 5.7860815493
Zn -4.2436888430 7.0582406773 5.7960576547
Zn 1.6915200000 0.4114910000 0.8555450000
Zn 0.4555910000 5.4920410000 0.8555450000
Zn -2.3606355881 -0.5633403909 2.9048898238
Zn -3.5943573426 4.5005067628 2.9130621820
Zn -6.3046623834 -1.5332424636 4.5970375509
Zn -7.5270403481 3.5563382351 4.5727559319
Zn 1.0735560000 2.9517660000 0.8555450000
Zn -0.1623740000 8.0323160000 0.8555450000
Zn -2.9752750403 1.9684262392 2.9114304439
Zn -4.2098602651 7.0500471693 2.9095477114
Zn -6.9223140490 1.0081727137 4.5722767210
Zn -8.1472576003 6.0979223606 4.5928429116
Zn 7.2216720000 0.4114910000 0.8555450000
Zn 5.9857420000 5.4920410000 0.8555450000
Zn 2.8249703487 -0.6569957628 3.0009204582
Zn 1.5856178992 4.4347075546 3.0074707098
Zn 0.1094975721 -1.2903017335 5.9313553244
Zn -1.1271458723 3.7897376107 5.9239810620
Zn 6.6037070000 2.9517660000 0.8555450000
Zn 5.3677780000 8.0323160000 0.8555450000
Zn 2.2402483262 1.8991029356 2.9640683849
Zn 0.9752828104 6.9721391985 3.0015194610
Zn -0.5449952232 1.2416958594 5.9577814244
Zn -1.7515389267 6.3235183916 5.9043383107
C -9.8953176327 2.5338419129 11.2065373839
N -10.0288155277 1.5348074961 8.9915275908
C -9.7812584517 2.3748850809 12.5861939288
C -9.7430275424 1.4305057764 10.3463333064
H -10.1192120252 3.5124629747 10.7819214902
H -9.9551632060 2.4643519026 8.5766490695
C -9.4947312592 1.1253516612 13.1442978573
C -9.3657967372 0.1950268146 10.9060395904
C -9.2553372113 0.0469326466 12.2855725951
H -9.9170815486 3.2483969924 13.2237625735
H -9.6146893585 0.8252653609 8.3846225938
H -9.4399906354 0.9975040303 14.2277644460
H -9.1735444363 -0.6497551108 10.2438604127
H -8.9731790625 -0.9277471107 12.6841554770
62
Frame from Quantum Espresso Output
Zn -1.0735560000 1.0841420000 1.1977640000
Zn -2.3094850000 6.1646920000 1.1977640000
Zn -4.4657101857 0.2655776940 4.3550077943
Zn -5.6884959579 5.3505282894 4.3260183245
Zn -8.4612497833 -0.7139396106 5.9255339720
Zn -9.6863735915 4.3731735982 5.9369793365
Zn -1.6915200000 3.6244170000 1.1977640000
Zn -2.9274500000 8.7049670000 1.1977640000
Zn -5.0773445310 2.8041876126 4.3462478733
Zn -6.3101625681 7.8920658563 4.3487173300
Zn -9.0965343497 1.8314215104 5.8542942752
Zn -10.3116467015 6.9039973821 5.9699929467
Zn 4.4565960000 1.0841420000 1.1977640000
Zn 3.2206660000 6.1646920000 1.1977640000
Zn 0.2697381559 0.0962344134 3.5947824304
Zn -0.9937062854 5.1630448361 3.5794592452
Zn -2.3894695547 -0.5665933302 5.7745216957
Zn -3.6299449595 4.5156481868 5.7900933010
Zn 3.8386310000 3.6244170000 1.1977640000
Zn 2.6027020000 8.7049670000 1.1977640000
Zn -0.3513622503 2.6249290327 3.6107062807
Zn -1.6200519919 7.7068994092 3.5856473771
Zn -3.0165794465 1.9810219337 5.7812981649
Zn -4.2430225613 7.0582094750 5.7897427419
Zn 1.6915200000 0.4114910000 0.8555450000
Zn 0.4555910000 5.4920410000 0.8555450000
Zn -2.3573314111 -0.5641167540 2.9101891783
Zn -3.5919422847 4.5027615996 2.9159870135
Zn -6.3039473215 -1.5328784834 4.5925785264
Zn -7.5267336570 3.5575210377 4.5686283985
Zn 1.0735560000 2.9517660000 0.8555450000
Zn -0.1623740000 8.0323160000 0.8555450000
Zn -2.9721324499 1.9690285004 2.9158202206
Zn -4.2082333717 7.0518839881 2.9132993333
Zn -6.9203486531 1.0089298901 4.5683827338
Zn -8.1476260581 6.0975930862 4.5881255393
Zn 7.2216720000 0.4114910000 0.8555450000
Zn 5.9857420000 5.4920410000 0.8555450000
Zn 2.8283833122 -0.6567062014 3.0017946801
Zn 1.5891877466 4.4359941574 3.0085072554
Zn 0.1093438259 -1.2899150972 5.9306149371
Zn -1.1271944200 3.7895398676 5.9243398427
Zn 6.6037070000 2.9517660000 0.8555450000
Zn 5.3677780000 8.0323160000 0.8555450000
Zn 2.2432779346 1.8997367059 2.9660149395
Zn 0.9775327058 6.9727222312 3.0030859823
Zn -0.5417415820 1.2420704688 5.9572200869
Zn -1.7513258480 6.3247812375 5.9049368273
C -9.8989332453 2.5350243996 11.2081102240
N -10.0199314448 1.5367362635 8.9925526892
C -9.7779023711 2.3758246362 12.5849870487
C -9.7464812446 1.4288995764 10.3518492404
H -10.1230075147 3.5159106221 10.7815019698
H -9.9567887587 2.4619007994 8.5743226073
C -9.4932463119 1.1255752702 13.1428248614
C -9.3685889810 0.1921963889 10.9061045189
C -9.2521254959 0.0476326421 12.2841727658
H -9.9188351874 3.2460492505 13.2262236453
H -9.6170557989 0.8273574752 8.3830259330
H -9.4372832488 0.9988917535 14.2244271423
H -9.1755543485 -0.6549654833 10.2423315177
H -8.9756053303 -0.9265658064 12.6875090622
