62
Final Frame from Quantum Espresso Output
Zn -1.0735560000 1.0841420000 1.1977640000
Zn -2.3094850000 6.1646920000 1.1977640000
Zn -4.4657101857 0.2655776940 4.3550077943
Zn -5.6884959579 5.3505282894 4.3260183245
Zn -8.4612497833 -0.7139396106 5.9255339720
Zn -9.6863735915 4.3731735982 5.9369793365
Zn -1.6915200000 3.6244170000 1.1977640000
Zn -2.9274500000 8.7049670000 1.1977640000
Zn -5.0773445310 2.8041876126 4.3462478733
Zn -6.3101625681 7.8920658563 4.3487173300
Zn -9.0965343497 1.8314215104 5.8542942752
Zn -10.3116467015 6.9039973821 5.9699929467
Zn 4.4565960000 1.0841420000 1.1977640000
Zn 3.2206660000 6.1646920000 1.1977640000
Zn 0.2697381559 0.0962344134 3.5947824304
Zn -0.9937062854 5.1630448361 3.5794592452
Zn -2.3894695547 -0.5665933302 5.7745216957
Zn -3.6299449595 4.5156481868 5.7900933010
Zn 3.8386310000 3.6244170000 1.1977640000
Zn 2.6027020000 8.7049670000 1.1977640000
Zn -0.3513622503 2.6249290327 3.6107062807
Zn -1.6200519919 7.7068994092 3.5856473771
Zn -3.0165794465 1.9810219337 5.7812981649
Zn -4.2430225613 7.0582094750 5.7897427419
Zn 1.6915200000 0.4114910000 0.8555450000
Zn 0.4555910000 5.4920410000 0.8555450000
Zn -2.3573314111 -0.5641167540 2.9101891783
Zn -3.5919422847 4.5027615996 2.9159870135
Zn -6.3039473215 -1.5328784834 4.5925785264
Zn -7.5267336570 3.5575210377 4.5686283985
Zn 1.0735560000 2.9517660000 0.8555450000
Zn -0.1623740000 8.0323160000 0.8555450000
Zn -2.9721324499 1.9690285004 2.9158202206
Zn -4.2082333717 7.0518839881 2.9132993333
Zn -6.9203486531 1.0089298901 4.5683827338
Zn -8.1476260581 6.0975930862 4.5881255393
Zn 7.2216720000 0.4114910000 0.8555450000
Zn 5.9857420000 5.4920410000 0.8555450000
Zn 2.8283833122 -0.6567062014 3.0017946801
Zn 1.5891877466 4.4359941574 3.0085072554
Zn 0.1093438259 -1.2899150972 5.9306149371
Zn -1.1271944200 3.7895398676 5.9243398427
Zn 6.6037070000 2.9517660000 0.8555450000
Zn 5.3677780000 8.0323160000 0.8555450000
Zn 2.2432779346 1.8997367059 2.9660149395
Zn 0.9775327058 6.9727222312 3.0030859823
Zn -0.5417415820 1.2420704688 5.9572200869
Zn -1.7513258480 6.3247812375 5.9049368273
C -9.8989332453 2.5350243996 11.2081102240
N -10.0199314448 1.5367362635 8.9925526892
C -9.7779023711 2.3758246362 12.5849870487
C -9.7464812446 1.4288995764 10.3518492404
H -10.1230075147 3.5159106221 10.7815019698
H -9.9567887587 2.4619007994 8.5743226073
C -9.4932463119 1.1255752702 13.1428248614
C -9.3685889810 0.1921963889 10.9061045189
C -9.2521254959 0.0476326421 12.2841727658
H -9.9188351874 3.2460492505 13.2262236453
H -9.6170557989 0.8273574752 8.3830259330
H -9.4372832488 0.9988917535 14.2244271423
H -9.1755543485 -0.6549654833 10.2423315177
H -8.9756053303 -0.9265658064 12.6875090622
