32
Final Frame from Quantum Espresso Output
Zn -0.0000000130 1.5094013740 1.2182902100
Zn -0.0000015064 1.5142308346 6.2418183324
Zn -1.3071799410 3.7735034240 1.2182902100
Zn -1.3071815187 3.7789693452 6.2422267090
Zn -2.6143598690 6.0376054730 1.2182902100
Zn -2.6143596010 6.0427134194 6.2426429977
Zn -3.9215397970 8.3017075230 1.2182902100
Zn -3.9215389747 8.3062360024 6.2424062806
Zn 2.6143598430 1.5094013740 1.2182902100
Zn 2.6143626786 1.5142316129 6.2418208564
Zn 1.3071799150 3.7735034240 1.2182902100
Zn 1.3071821450 3.7789709445 6.2422244244
Zn -0.0000000130 6.0376054730 1.2182902100
Zn 0.0000008530 6.0427146528 6.2426401483
Zn -1.3071799410 8.3017075230 1.2182902100
Zn -1.3071806390 8.3062372265 6.2424059394
Zn 1.3071799410 0.7547006760 3.6548706290
Zn 1.3071793759 0.7442191393 8.8286621377
Zn 0.0000000130 3.0188027250 3.6548706290
Zn 0.0000005839 3.0089234186 8.8288802799
Zn -1.3071799150 5.2829047750 3.6548706290
Zn -1.3071784451 5.2730370550 8.8260097737
Zn -2.6143598430 7.5470068250 3.6548706290
Zn -2.6143595532 7.5365411093 8.8258033281
Zn 3.9215397970 0.7547006760 3.6548706290
Zn 3.9215410180 0.7442188186 8.8286616024
Zn 2.6143598690 3.0188027250 3.6548706290
Zn 2.6143602096 3.0089227841 8.8288845038
Zn 1.3071799410 5.2829047750 3.6548706290
Zn 1.3071792906 5.2730365717 8.8260091880
Zn 0.0000000130 7.5470068250 3.6548706290
Zn 0.0000005470 7.5365401002 8.8258027248
