79
Final Frame from Quantum Espresso Output
Zn -0.0000000130 1.5094013740 1.2182902590
Zn 5.2287196980 1.5094013740 1.2182902590
Zn 0.0009612562 1.5109862518 5.9805388789
Zn 5.2301849739 1.5067385453 5.9644749202
Zn -1.3071799410 3.7735034240 1.2182902590
Zn 3.9215397700 3.7735034240 1.2182902590
Zn -1.3047875128 3.7750061613 5.9790630453
Zn 3.9181985256 3.7775149962 5.9641872940
Zn -2.6143598690 6.0376054730 1.2182902590
Zn 2.6143598420 6.0376054730 1.2182902590
Zn -2.6119542386 6.0399882645 5.9793516647
Zn 2.6145945466 6.0396128048 5.9767091509
Zn -3.9215397970 8.3017075230 1.2182902590
Zn 1.3071799140 8.3017075230 1.2182902590
Zn -3.9209815689 8.3034376739 5.9764596038
Zn 1.3087262446 8.3020506221 5.9789058323
Zn 2.6143598430 1.5094013740 1.2182902590
Zn 7.8430795540 1.5094013740 1.2182902590
Zn 2.6125670799 1.5101254698 5.9732855719
Zn 7.8466990050 1.5095184890 5.9747052153
Zn 1.3071799150 3.7735034240 1.2182902590
Zn 6.5358996260 3.7735034240 1.2182902590
Zn 1.3072276670 3.7750767909 5.9768997661
Zn 6.5410204077 3.7768622599 5.9646996979
Zn -0.0000000130 6.0376054730 1.2182902590
Zn 5.2287196980 6.0376054730 1.2182902590
Zn 0.0009903262 6.0389255024 5.9787796972
Zn 5.2292313171 6.0417620842 5.9735285440
Zn -1.3071799410 8.3017075230 1.2182902590
Zn 3.9215397700 8.3017075230 1.2182902590
Zn -1.3064176113 8.3015230752 5.9793197130
Zn 3.9225048865 8.3033398244 5.9804669016
Zn 1.3071799410 0.7547006760 3.6548707760
Zn 6.5358996520 0.7547006760 3.6548707760
Zn 1.3091873871 0.7593306401 8.5212354720
Zn 6.5381543648 0.7577782183 8.5285806668
Zn 0.0000000130 3.0188027250 3.6548707760
Zn 5.2287197240 3.0188027250 3.6548707760
Zn 0.0028306047 3.0230905335 8.5281399896
Zn 5.2299390298 3.0235560148 8.4050347809
Zn -1.3071799150 5.2829047750 3.6548707760
Zn 3.9215397960 5.2829047750 3.6548707760
Zn -1.3037054726 5.2872321698 8.5254382022
Zn 3.9228443136 5.2873824505 8.5343045823
Zn -2.6143598430 7.5470068250 3.6548707760
Zn 2.6143598680 7.5470068250 3.6548707760
Zn -2.6125055620 7.5509632636 8.5299390736
Zn 2.6163010701 7.5507910530 8.5287319344
Zn 3.9215397970 0.7547006760 3.6548707760
Zn 9.1502595080 0.7547006760 3.6548707760
Zn 3.9227856062 0.7573216074 8.5005000804
Zn 9.1520364714 0.7590535748 8.5260546620
Zn 2.6143598690 3.0188027250 3.6548707760
Zn 7.8430795800 3.0188027250 3.6548707760
Zn 2.6159279517 3.0237416828 8.5369220761
Zn 7.8465717066 3.0231613395 8.5287836178
Zn 1.3071799410 5.2829047750 3.6548707760
Zn 6.5358996520 5.2829047750 3.6548707760
Zn 1.3099357158 5.2868565241 8.5202955973
Zn 6.5390721625 5.2879363828 8.5065370738
Zn 0.0000000130 7.5470068250 3.6548707760
Zn 5.2287197240 7.5470068250 3.6548707760
Zn 0.0022514400 7.5500015982 8.5247738688
Zn 5.2308226166 7.5516330916 8.5204641695
C 6.1766486000 2.3877373756 17.4833574550
C 5.9572696010 2.5155574137 16.0833832348
C 5.2398722845 1.5265814486 15.3762364563
C 6.4516116691 3.6321033609 15.3748391233
C 6.2298135807 3.7595541146 14.0136993013
C 5.0172201110 1.6542754399 14.0154800479
C 5.5022419567 2.7761406199 13.3045547939
N 6.3562171458 2.2788658174 18.6388006753
N 5.2189147662 2.9374135034 11.9687156184
H 5.7645260980 3.6094672386 11.4297488892
H 4.9101030081 2.1270697645 11.4322552529
H 4.8561680456 0.6557902355 15.9156609774
H 7.0119486544 4.4019468342 15.9129622479
H 6.6152635940 4.6334580244 13.4775815744
H 4.4553935028 0.8811794285 13.4807517541
