51
Final Frame from Quantum Espresso Output
Zn 0.0000000000 1.5094010000 1.2182900000
Zn 5.2287200000 1.5094010000 1.2182900000
Zn 0.0075036383 1.5067951176 6.1586864631
Zn 5.2318949636 1.5148688368 6.1424062686
Zn -1.3071800000 3.7735030000 1.2182900000
Zn 3.9215400000 3.7735030000 1.2182900000
Zn -1.3016252462 3.7708573389 6.1553674123
Zn 3.9323899395 3.7638878802 6.4633565027
Zn -2.6143600000 6.0376050000 1.2182900000
Zn 2.6143600000 6.0376050000 1.2182900000
Zn -2.6076856131 6.0352391644 6.1543632528
Zn 2.6241167666 6.0319913511 6.1074632336
Zn -3.9215400000 8.3017080000 1.2182900000
Zn 1.3071800000 8.3017080000 1.2182900000
Zn -3.9144680299 8.2991961769 6.1551158382
Zn 1.3135062338 8.2992922187 6.1559861849
Zn 2.6143600000 1.5094010000 1.2182900000
Zn 7.8430800000 1.5094010000 1.2182900000
Zn 2.6243834575 1.5140055024 6.1345415449
Zn 7.8482689405 1.5072747373 6.1549100666
Zn 1.3071800000 3.7735030000 1.2182900000
Zn 6.5359000000 3.7735030000 1.2182900000
Zn 1.3193316576 3.7716877449 6.1101038681
Zn 6.5341240580 3.7720391762 6.1424770568
Zn 0.0000000000 6.0376050000 1.2182900000
Zn 5.2287200000 6.0376050000 1.2182900000
Zn 0.0063585033 6.0351101690 6.1605537464
Zn 5.2319856509 6.0294944118 6.1202367203
Zn -1.3071800000 8.3017080000 1.2182900000
Zn 3.9215400000 8.3017080000 1.2182900000
Zn -1.2999997132 8.3000402272 6.1539296330
Zn 3.9287360317 8.2991660371 6.1618376920
Zn 1.3124146954 0.7566157350 3.6881833632
Zn 6.5398679892 0.7570306829 3.6872677459
Zn 0.0057883854 3.0167958959 3.6892514337
Zn 5.2285353198 3.0214213029 3.6854563217
Zn -1.3023517587 5.2849426400 3.6819880003
Zn 3.9270759593 5.2755458326 3.6960718188
Zn -2.6080292643 7.5465442454 3.6817899625
Zn 2.6212885509 7.5477049367 3.6873135992
Zn 3.9265137649 0.7569428180 3.6918901230
Zn 9.1555727558 0.7546053670 3.6810999752
Zn 2.6255595373 3.0209127969 3.6898684977
Zn 7.8456213612 3.0181286456 3.6882413739
Zn 1.3122779121 5.2830096208 3.6837092420
Zn 6.5392234403 5.2818476734 3.6904228095
Zn 0.0032888654 7.5465594037 3.6827430617
Zn 5.2321049678 7.5470273925 3.6900147947
O 3.7829416667 3.9945320299 8.9180088483
H 3.8371926765 4.9686367919 8.9361929752
H 2.8349119282 3.8029029795 9.0417607180
