35
Final Frame from Quantum Espresso Output
Zn -1.0735556570 1.0841422360 1.1977635690
Zn -5.3677776710 0.0395003420 3.2510724040
Zn -8.5814650687 -0.7648334565 6.8871034067
Zn -12.6935346687 -1.7528491606 7.9265920690
Zn -1.6915203730 3.6244172340 1.1977635690
Zn -5.9857423860 2.5797753400 3.2510724040
Zn -9.2006385391 1.7687679839 6.8840584908
Zn -13.3197510055 0.7951791388 7.9185681645
Zn 4.4565957100 1.0841422360 1.1977635690
Zn 0.1623736960 0.0395003420 3.2510724040
Zn -4.0472311054 -0.9943402047 5.6389740043
Zn -6.5017432008 -1.6072945132 8.1277228330
Zn 3.8386309950 3.6244172340 1.1977635690
Zn -0.4555910190 2.5797753400 3.2510724040
Zn -4.6165146471 1.5670543796 5.6110368791
Zn -7.1899228709 0.9148056942 8.3383214928
Zn 1.6915202950 0.4114908680 0.8555452660
Zn -2.6027017190 -0.6331510260 2.9088541010
Zn -6.7440851432 -1.6447566108 5.0657670680
Zn -10.4289965091 -2.5500568200 6.6517132716
Zn 1.0735555790 2.9517658660 0.8555452660
Zn -3.2206664340 1.9071239720 2.9088541010
Zn -7.3485269960 0.8903128809 5.1258114934
Zn -11.0542780436 -0.0220407782 6.6453079929
Zn 7.2216716620 0.4114908680 0.8555452660
Zn 2.9274496480 -0.6331510260 2.9088541010
Zn -1.3404378517 -1.6715768388 5.0728652626
Zn -4.0877411036 -2.3693109574 8.0191231903
Zn 6.6037069470 2.9517658660 0.8555452660
Zn 2.3094849330 1.9071239720 2.9088541010
Zn -1.9327570098 0.8766221797 5.0702108504
Zn -4.7023682343 0.1919801404 8.0203843434
O -8.1682723548 0.5720300947 10.7753438116
H -9.0754544191 0.9419773376 10.7018588780
H -7.7234791048 1.1716238828 11.4115589656
