35
Final Frame from Quantum Espresso Output
Zn 1.2182902100 1.3071799410 0.7547006760
Zn 1.2182902100 0.0000000130 3.0188027260
Zn 1.3093183212 -1.3111472092 5.6581956719
Zn 1.2587898217 -2.6242747013 8.2823915092
Zn 1.2182902100 3.9215397970 0.7547006760
Zn 1.2182902100 2.6143598690 3.0188027260
Zn 1.3034016176 1.3030821979 5.6432946878
Zn 1.2581151426 -0.0096702203 8.2925117631
Zn 6.0914510490 1.3071799410 0.7547006760
Zn 6.0914510490 0.0000000130 3.0188027260
Zn 6.1633272157 -1.3121312204 5.6449410104
Zn 6.1305020209 -2.6271373267 8.2412796162
Zn 6.0914510490 3.9215397970 0.7547006760
Zn 6.0914510490 2.6143598690 3.0188027260
Zn 6.1666773741 1.3010204800 5.6309526161
Zn 6.1295195276 -0.0125255529 8.2617034329
Zn 3.6548706290 -0.0000000130 1.5094013740
Zn 3.6548706290 -1.3071799410 3.7735034240
Zn 3.7493601915 -2.6292708346 6.0892999406
Zn 3.6804040043 -3.9426308884 8.5999114267
Zn 3.6548706290 2.6143598430 1.5094013740
Zn 3.6548706290 1.3071799150 3.7735034240
Zn 3.7491866987 -0.0002793515 6.0872964051
Zn 3.6856885635 -1.3217440243 8.4333235882
Zn 8.5280314680 -0.0000000130 1.5094013740
Zn 8.5280314680 -1.3071799410 3.7735034240
Zn 8.6246660016 -2.6182248774 6.0701813254
Zn 8.5669709284 -3.9303068481 8.4649596126
Zn 8.5280314680 2.6143598430 1.5094013740
Zn 8.5280314680 1.3071799150 3.7735034240
Zn 8.6285702563 -0.0028712537 6.0681572231
Zn 8.5649122257 -1.3154375870 8.4629765862
O 3.9137474293 -3.8532297388 11.1558137918
H 4.7545541559 -3.3435966857 11.1543597592
H 3.2392873688 -3.1948068906 11.4330298212
