15
Frame from Quantum Espresso Output
N 9.4704215277 11.7932058738 10.8876222124
C 11.7829371974 12.6075417247 10.8765348719
C 10.9456685154 11.5326261238 10.9334835815
C 13.1590907386 12.3570366066 10.8617608666
C 11.3597648784 10.2362659196 10.9943927456
C 13.6332297220 11.0525133729 10.9118422430
C 12.7375361502 9.9938705072 10.9793402484
H 11.4318135496 13.6427800734 10.8366798174
H 9.1680606143 11.9404840722 11.9494502193
H 13.8657140840 13.1948661748 10.8086162876
H 10.6725300086 9.3867294606 11.0485334404
H 14.7114820676 10.8595961504 10.8989126117
H 13.1103783945 8.9624926147 11.0196753278
H 9.2112238853 12.6800431031 10.4971048369
H 8.9079781311 11.0038255705 10.6283213096
15
Frame from Quantum Espresso Output
N 9.4725378178 11.7978700916 10.9402570550
C 11.7941326361 12.6197787164 10.8754623482
C 10.9370944143 11.5338830923 10.9250388485
C 13.1604867965 12.3627718573 10.8626269990
C 11.3662203711 10.2202140173 10.9946761842
C 13.6371679612 11.0518684670 10.9119981849
C 12.7370258922 9.9879899207 10.9806884858
H 11.4303762857 13.6423337273 10.8361973449
H 9.1708974492 11.9379807918 11.9347250476
H 13.8632385361 13.1935068455 10.8089063814
H 10.6713749778 9.3876586913 11.0479581349
H 14.7096725543 10.8598917069 10.8987841075
H 13.1085272085 8.9646773067 11.0197686465
H 9.2075403811 12.6876726610 10.4808711612
H 8.9015361829 10.9957794553 10.6143116906
15
Frame from Quantum Espresso Output
N 9.4561024240 11.8034445658 10.9732334137
C 11.7946740567 12.6190773481 10.8736451084
C 10.9350569596 11.5340198623 10.9197752273
C 13.1700441068 12.3640129089 10.8633802478
C 11.3667576022 10.2206001021 10.9927310325
C 13.6338807974 11.0526336133 10.9127657635
C 12.7456466390 9.9834090324 10.9815885169
H 11.4275664255 13.6473568887 10.8355359300
H 9.1727434483 11.9360190270 11.9272603746
H 13.8629978640 13.1946762355 10.8093367749
H 10.6668741643 9.3836250426 11.0477205223
H 14.7097659472 10.8598539435 10.8986615130
H 13.1080026400 8.9636514960 11.0202595363
H 9.2096408314 12.6757544848 10.4714518371
H 8.9080755582 11.0057427973 10.6049248218
15
Frame from Quantum Espresso Output
N 9.4591344527 11.8033297439 10.9708661611
C 11.7982107527 12.6226043743 10.8720991903
C 10.9298791149 11.5351582272 10.9193546544
C 13.1669687895 12.3648854368 10.8635501567
C 11.3687776996 10.2157419079 10.9915508704
C 13.6390377123 11.0516523857 10.9132928158
C 12.7424431459 9.9837935885 10.9816933644
H 11.4267842449 13.6476962545 10.8353107889
H 9.1680606345 11.9373616994 11.9400507837
H 13.8649260108 13.1970183250 10.8095716374
H 10.6659918219 9.3834801427 11.0474996994
H 14.7082013469 10.8601404523 10.8987225968
H 13.1090826143 8.9607360812 11.0207146505
H 9.2099356373 12.6694838702 10.4673637960
H 8.9103954862 11.0107948586 10.6006294542
15
Frame from Quantum Espresso Output
N 9.4635661254 11.8032878400 10.9745179267
C 11.7951980507 12.6230678031 10.8701586522
C 10.9310925534 11.5349795251 10.9193922504
C 13.1687762735 12.3653733998 10.8634468280
C 11.3656028017 10.2163600982 10.9895143333
C 13.6377766308 11.0519601064 10.9142428178
C 12.7437850729 9.9825878176 10.9815486714
H 11.4261031048 13.6487702786 10.8348747982
H 9.1620523270 11.9387373726 11.9523469494
H 13.8666680193 13.1992557748 10.8101202901
H 10.6648921684 9.3825222789 11.0471263003
H 14.7100596297 10.8598144190 10.8989232364
H 13.1100243591 8.9581042489 11.0214244023
H 9.2097320300 12.6628963375 10.4606267961
H 8.9125003181 11.0161600477 10.5940063675
15
Frame from Quantum Espresso Output
N 9.4619577086 11.8043271635 10.9822347266
C 11.7960202565 12.6222556281 10.8681208357
C 10.9326389071 11.5349958616 10.9202276968
C 13.1675625794 12.3671920102 10.8630206328
C 11.3663419596 10.2166402691 10.9873048373
C 13.6385692597 11.0517387121 10.9152789814
C 12.7419240267 9.9813610039 10.9811235533
H 11.4248778245 13.6503904003 10.8342690005
H 9.1571416863 11.9394675080 11.9586711113
H 13.8684431495 13.2012675006 10.8108681853
H 10.6631212888 9.3813156223 11.0466029693
H 14.7108008776 10.8596976023 10.8994231858
H 13.1110562094 8.9556770492 11.0222756187
H 9.2107675309 12.6543903243 10.4547739696
H 8.9166062000 11.0231606928 10.5880753158
15
Frame from Quantum Espresso Output
N 9.4614395624 11.8047137910 10.9838124950
C 11.7957639839 12.6237569288 10.8675735622
C 10.9321590021 11.5351442956 10.9221166569
C 13.1689100618 12.3670011876 10.8624298932
C 11.3655350021 10.2155019627 10.9868087900
C 13.6375224436 11.0519787881 10.9156020905
C 12.7430601372 9.9809345116 10.9804736818
H 11.4247610040 13.6495454882 10.8339564465
H 9.1551651128 11.9396674332 11.9580490103
H 13.8683260083 13.2011774758 10.8113307059
H 10.6632324549 9.3821225380 11.0461643199
H 14.7108569318 10.8596903951 10.9000132454
H 13.1109382858 8.9559186606 11.0226363882
H 9.2117596756 12.6518669618 10.4541005990
H 8.9183997985 11.0248569302 10.5872027353
15
Frame from Quantum Espresso Output
N 9.4622718183 11.8044628526 10.9839825589
C 11.7957784661 12.6230762719 10.8676259849
C 10.9326269924 11.5353126457 10.9244558005
C 13.1690977532 12.3669366190 10.8617472462
C 11.3656844144 10.2161473802 10.9867094891
C 13.6371989125 11.0519880847 10.9156770756
C 12.7431817770 9.9809360361 10.9797097089
H 11.4245277175 13.6493069308 10.8335836014
H 9.1531121092 11.9399486091 11.9563237946
H 13.8681758248 13.2007698576 10.8117401417
H 10.6630577956 9.3825116627 11.0457039291
H 14.7103520912 10.8597814958 10.9008223116
H 13.1108512130 8.9564433744 11.0228982985
H 9.2126148875 12.6517447976 10.4540838247
H 8.9192976919 11.0245107301 10.5872068543
15
Frame from Quantum Espresso Output
N 9.4629576199 11.8042969489 10.9842248122
C 11.7959637846 12.6228978907 10.8677617189
C 10.9331290581 11.5353463451 10.9268031072
C 13.1690153532 12.3667085120 10.8611168950
C 11.3658767331 10.2164735091 10.9867142925
C 13.6369847112 11.0520415544 10.9156879369
C 12.7430408487 9.9811191713 10.9789518583
H 11.4242723128 13.6489468987 10.8331280818
H 9.1504564464 11.9403510938 11.9550658329
H 13.8682264757 13.2005672538 10.8121536956
H 10.6628442449 9.3829923378 11.0451332443
H 14.7099525338 10.8598474058 10.9018126821
H 13.1108603681 8.9567175469 11.0231603330
H 9.2137327519 12.6514150302 10.4536959445
H 8.9205162223 11.0241558495 10.5868601849
15
Frame from Quantum Espresso Output
N 9.4636323605 11.8040726783 10.9844302549
C 11.7962302244 12.6226671288 10.8681630176
C 10.9336616840 11.5356539429 10.9299070265
C 13.1689906154 12.3668218602 10.8603697196
C 11.3660759485 10.2166083018 10.9869366882
C 13.6368739015 11.0519643544 10.9156102985
C 12.7429213946 9.9811340251 10.9780258062
H 11.4238748789 13.6485554235 10.8324278803
H 9.1462924501 11.9410133273 11.9536460283
H 13.8683159210 13.2002298876 10.8126874422
H 10.6625077196 9.3836829490 11.0442520534
H 14.7094771938 10.8599227594 10.9033705077
H 13.1108793114 8.9570973008 11.0234474304
H 9.2155837094 12.6509220830 10.4528600337
H 8.9225121517 11.0235313261 10.5861364326
15
Frame from Quantum Espresso Output
N 9.4642643997 11.8039353783 10.9846515000
C 11.7966650550 12.6228484065 10.8690557576
C 10.9341410196 11.5356240182 10.9340167203
C 13.1689331772 12.3665068427 10.8596417694
C 11.3664490030 10.2170589119 10.9875658538
C 13.6366685597 11.0521618689 10.9153923932
C 12.7426406193 9.9812367525 10.9769800073
H 11.4233203122 13.6480533531 10.8313977861
H 9.1399944225 11.9420245689 11.9516846300
H 13.8687018220 13.2000136133 10.8133084043
H 10.6618559624 9.3844807299 11.0429426130
H 14.7090745305 10.8599623037 10.9057771277
H 13.1110110362 8.9573601377 11.0236953978
H 9.2185169450 12.6503654884 10.4513393171
H 8.9255926005 11.0222449743 10.5848213426
15
Frame from Quantum Espresso Output
N 9.4644326083 11.8035942325 10.9847058367
C 11.7968665351 12.6226653186 10.8707112475
C 10.9346596046 11.5365842189 10.9386613580
C 13.1689291778 12.3669458401 10.8592572429
C 11.3664263208 10.2168127376 10.9888921121
C 13.6367303841 11.0517539271 10.9151490046
C 12.7426326210 9.9815073327 10.9761676863
H 11.4226322294 13.6477936326 10.8301000027
H 9.1315976469 11.9433880483 11.9492295095
H 13.8692688340 13.1996921030 10.8138609199
H 10.6611309372 9.3855601944 11.0412361907
H 14.7087723253 10.8599883925 10.9090381836
H 13.1112361770 8.9574487814 11.0236958374
H 9.2226292878 12.6498122821 10.4488185296
H 8.9298847753 11.0203303065 10.5827469585
15
Frame from Quantum Espresso Output
N 9.4640482735 11.8037730417 10.9842920164
C 11.7969528637 12.6232324998 10.8717830396
C 10.9343204874 11.5362290658 10.9398453163
C 13.1690835233 12.3669309449 10.8597913092
C 11.3664873591 10.2173067469 10.9898318524
C 13.6369580723 11.0521056467 10.9151902930
C 12.7424585468 9.9810125170 10.9765299799
H 11.4225023276 13.6478596970 10.8297296803
H 9.1283729085 11.9438958602 11.9481725317
H 13.8696119543 13.1996960595 10.8137719505
H 10.6606971073 9.3855908027 11.0406723765
H 14.7090076595 10.8599045904 10.9103491612
H 13.1113220009 8.9574524744 11.0233150788
H 9.2243644332 12.6496794884 10.4474358506
H 8.9316419471 11.0192079128 10.5815601837
15
Frame from Quantum Espresso Output
N 9.4631493298 11.8038490550 10.9833649311
C 11.7968421479 12.6237300553 10.8732891150
C 10.9337077157 11.5363218415 10.9398910330
C 13.1691435676 12.3668311556 10.8612978823
C 11.3663575903 10.2173574663 10.9912316137
C 13.6369258650 11.0521838795 10.9157338801
C 12.7424789201 9.9812265807 10.9778247901
H 11.4225866319 13.6483769409 10.8297236016
H 9.1260389503 11.9442357147 11.9469141918
H 13.8701013722 13.1999530285 10.8132298799
H 10.6604022984 9.3853512815 11.0404355114
H 14.7097663408 10.8597390789 10.9113721040
H 13.1114736893 8.9569266077 11.0224300474
H 9.2257736883 12.6498047308 10.4455241494
H 8.9330813571 11.0179899316 10.5800078892
15
Frame from Quantum Espresso Output
N 9.4620266090 11.8039209884 10.9816050650
C 11.7963979330 12.6242728767 10.8753357137
C 10.9331162265 11.5366412426 10.9395843281
C 13.1693266297 12.3673235794 10.8638573127
C 11.3657284802 10.2173250050 10.9931426242
C 13.6376319369 11.0521146176 10.9173005531
C 12.7425904614 9.9809702763 10.9801925296
H 11.4229698652 13.6492250682 10.8301400809
H 9.1237485724 11.9445165192 11.9449682702
H 13.8704730026 13.2000786384 10.8123129965
H 10.6603162841 9.3849635961 11.0404912881
H 14.7104235576 10.8595873882 10.9123531645
H 13.1114796913 8.9564984083 11.0209522715
H 9.2270579668 12.6496839769 10.4425292902
H 8.9345422482 11.0167551669 10.5775051319
15
Frame from Quantum Espresso Output
N 9.4616205073 11.8037826254 10.9796382157
C 11.7963813268 12.6245172736 10.8770589309
C 10.9328199652 11.5370465367 10.9401015194
C 13.1694206548 12.3675126733 10.8661830444
C 11.3656580219 10.2173065602 10.9946986042
C 13.6374873302 11.0520845075 10.9195211278
C 12.7426238709 9.9812262219 10.9823240913
H 11.4233896272 13.6499171332 10.8307655955
H 9.1216645227 11.9447389844 11.9424897596
H 13.8705934329 13.2000779998 10.8116330458
H 10.6603153436 9.3847050066 11.0407188435
H 14.7109567775 10.8594796976 10.9131705819
H 13.1113460463 8.9562318907 11.0196693354
H 9.2278535064 12.6492073775 10.4394320952
H 8.9356985312 11.0160428600 10.5748658295
15
Frame from Quantum Espresso Output
N 9.4615125279 11.8036094836 10.9776953010
C 11.7963939735 12.6247566834 10.8786340166
C 10.9328728875 11.5373390623 10.9411649646
C 13.1694492886 12.3675759736 10.8682539975
C 11.3655389926 10.2173973820 10.9960843029
C 13.6375614299 11.0521167978 10.9218896763
C 12.7426229852 9.9814230950 10.9841985134
H 11.4238254248 13.6503695653 10.8314269472
H 9.1194517730 11.9449750269 11.9396975736
H 13.8706374230 13.2000136072 10.8111789417
H 10.6604084695 9.3846441383 11.0409506986
H 14.7110447753 10.8594513455 10.9140378140
H 13.1111432874 8.9561571723 11.0185955129
H 9.2285488289 12.6485536084 10.4363048893
H 8.9368173975 11.0154944067 10.5721574705
15
Frame from Quantum Espresso Output
N 9.4616065160 11.8033555967 10.9748756889
C 11.7965647628 12.6250063455 10.8807687306
C 10.9330527423 11.5376824961 10.9431227299
C 13.1695480687 12.3677002626 10.8709434526
C 11.3656076757 10.2176397842 10.9979134466
C 13.6375165410 11.0521950592 10.9252921011
C 12.7425657989 9.9816573165 10.9866026127
H 11.4244229934 13.6508187463 10.8324041842
H 9.1161387770 11.9453440928 11.9355057390
H 13.8705888421 13.1998177941 10.8108290857
H 10.6605505161 9.3847011753 11.0412867365
H 14.7109776531 10.8594541390 10.9153708599
H 13.1107994805 8.9562144860 11.0173495118
H 9.2294840708 12.6474391865 10.4318007350
H 8.9384050263 11.0148508675 10.5682050055
15
Frame from Quantum Espresso Output
N 9.4618927240 11.8029096135 10.9707044862
C 11.7969267918 12.6252876166 10.8837981366
C 10.9334968108 11.5381181477 10.9462256047
C 13.1695990739 12.3676940484 10.8746333624
C 11.3657083495 10.2180706116 11.0004552941
C 13.6374914414 11.0524297908 10.9301309846
C 12.7425079471 9.9819558820 10.9898441927
H 11.4252742733 13.6512406006 10.8339294462
H 9.1112852774 11.9459074089 11.9291288759
H 13.8705327663 13.1995784277 10.8107471198
H 10.6608364917 9.3849949816 11.0418328337
H 14.7106076844 10.8595081940 10.9174425560
H 13.1102649674 8.9564162323 11.0159680476
H 9.2307462963 12.6457312122 10.4251117850
H 8.9406585693 11.0140345804 10.5623178945
15
Frame from Quantum Espresso Output
N 9.4623991014 11.8024088168 10.9644010890
C 11.7974269110 12.6256645214 10.8881899733
C 10.9341245542 11.5385654511 10.9508449706
C 13.1699195335 12.3679188731 10.8797219482
C 11.3661879207 10.2188718541 11.0040375927
C 13.6373801295 11.0526070981 10.9367410617
C 12.7423161278 9.9824586507 10.9942177918
H 11.4264643640 13.6515154214 10.8363088763
H 9.1040529698 11.9467992345 11.9195315197
H 13.8703767774 13.1991558719 10.8114395936
H 10.6612062462 9.3856141619 11.0427097159
H 14.7099143209 10.8596498564 10.9207752409
H 13.1095256093 8.9567511907 11.0147708442
H 9.2326116775 12.6430723846 10.4151384142
H 8.9439232216 11.0128239616 10.5534419883
15
Frame from Quantum Espresso Output
N 9.4625340440 11.8020572323 10.9623583338
C 11.7978192755 12.6255392096 10.8893376320
C 10.9343224405 11.5387475304 10.9518733246
C 13.1697948446 12.3676868553 10.8809977980
C 11.3661956520 10.2190764122 11.0048562687
C 13.6373539910 11.0529533347 10.9381440853
C 12.7424313474 9.9823442373 10.9951993421
H 11.4267119995 13.6514170107 10.8372861097
H 9.1023030921 11.9470694060 11.9165207238
H 13.8704519965 13.1992372189 10.8125374876
H 10.6614177524 9.3860232587 11.0431844124
H 14.7096171507 10.8597069954 10.9218945553
H 13.1092874309 8.9570105189 11.0153684998
H 9.2329260142 12.6423258112 10.4120087934
H 8.9446624335 11.0126823165 10.5507032535
15
Frame from Quantum Espresso Output
N 9.4626533596 11.8018680021 10.9599559228
C 11.7980432864 12.6254858840 10.8905374600
C 10.9344979893 11.5387741154 10.9527043721
C 13.1698952649 12.3676708730 10.8822881022
C 11.3663909602 10.2193749841 11.0056338690
C 13.6373588897 11.0530611127 10.9393242065
C 12.7424446829 9.9824345934 10.9961270733
H 11.4269590075 13.6511565572 10.8385195126
H 9.1004955489 11.9473805999 11.9131446473
H 13.8704881503 13.1992964622 10.8143175592
H 10.6615758185 9.3864784120 11.0438243978
H 14.7093032727 10.8598028958 10.9232480588
H 13.1091179683 8.9571783243 11.0166154889
H 9.2332497839 12.6414617378 10.4084818586
H 8.9453554817 11.0124527942 10.5475480911
15
Frame from Quantum Espresso Output
N 9.4626705025 11.8015823617 10.9560827359
C 11.7983666617 12.6253572650 10.8922644265
C 10.9346340121 11.5388055095 10.9533275606
C 13.1700575467 12.3676916658 10.8841822974
C 11.3666465507 10.2197658926 11.0066425886
C 13.6373878514 11.0532284911 10.9405617571
C 12.7425104483 9.9824965879 10.9974079561
H 11.4272009526 13.6507723069 10.8406075451
H 9.0978824100 11.9478995377 11.9080342081
H 13.8706356517 13.1995100635 10.8178311710
H 10.6617331866 9.3871558997 11.0449573284
H 14.7090412651 10.8599254040 10.9254647208
H 13.1089506745 8.9573919281 11.0193501239
H 9.2337751848 12.6402572041 10.4029344350
H 8.9463365660 11.0120372308 10.5426217655
15
Frame from Quantum Espresso Output
N 9.4625192382 11.8012081101 10.9500738079
C 11.7987123273 12.6252523844 10.8947569217
C 10.9347270004 11.5388374347 10.9535971418
C 13.1703304691 12.3677828556 10.8871511992
C 11.3669435335 10.2202471751 11.0080292163
C 13.6375246009 11.0533908010 10.9422219232
C 12.7426183014 9.9826432682 10.9994279352
H 11.4274865752 13.6503462865 10.8439068830
H 9.0941157104 11.9486880550 11.9003706153
H 13.8709082800 13.1999065937 10.8235625606
H 10.6618735996 9.3880148445 11.0467836707
H 14.7088913382 10.8600780514 10.9288077819
H 13.1087934445 8.9576075710 11.0239130882
H 9.2346296005 12.6385942692 10.3944942349
H 8.9477554455 11.0112796479 10.5351736402
15
Frame from Quantum Espresso Output
N 9.4621295535 11.8006886065 10.9409294220
C 11.7991049550 12.6251980442 10.8983213259
C 10.9347182380 11.5389177702 10.9533376182
C 13.1707480651 12.3680060121 10.8917905836
C 11.3672751852 10.2208101956 11.0099354812
C 13.6377876716 11.0535656343 10.9446923876
C 12.7427946436 9.9828660112 11.0026321446
H 11.4278093353 13.6499948699 10.8489332988
H 9.0884961965 11.9498897087 11.8889350235
H 13.8713420341 13.2005271247 10.8324733819
H 10.6619493344 9.3890476916 11.0495686661
H 14.7089906318 10.8602534179 10.9337781817
H 13.1086512593 8.9578602907 11.0310520458
H 9.2361003862 12.6362835430 10.3818196487
H 8.9499319750 11.0099684278 10.5240714103
15
Frame from Quantum Espresso Output
N 9.4614366060 11.7999445914 10.9270713042
C 11.7994812626 12.6253204022 10.9034767098
C 10.9345738236 11.5390946880 10.9523281281
C 13.1713285228 12.3684020606 10.8991707061
C 11.3675722055 10.2214593115 11.0126406602
C 13.6382765015 11.0537494436 10.9488201655
C 12.7430380588 9.9832592839 11.0078496246
H 11.4282166200 13.6499112572 10.8564570212
H 9.0799090393 11.9517121082 11.8716901083
H 13.8719860392 13.2014240878 10.8458774911
H 10.6619152689 9.3902107763 11.0536811786
H 14.7094741122 10.8604528174 10.9411246715
H 13.1085329259 8.9581677052 11.0417139915
H 9.2386791529 12.6330412054 10.3628151819
H 8.9534093257 11.0077276098 10.5075536774
15
Frame from Quantum Espresso Output
N 9.4605066121 11.7991490011 10.9104099100
C 11.7995721708 12.6256474459 10.9084959352
C 10.9341469479 11.5392716280 10.9490166528
C 13.1718970615 12.3689456324 10.9081090306
C 11.3676262235 10.2218170881 11.0147536185
C 13.6389615456 11.0538501032 10.9536486450
C 12.7433264363 9.9837457337 11.0141445645
H 11.4283528435 13.6503774529 10.8656741170
H 9.0704637703 11.9538575391 11.8512772840
H 13.8726898663 13.2025279871 10.8633871643
H 10.6616221472 9.3909744077 11.0587079790
H 14.7105929482 10.8606242457 10.9495979940
H 13.1086506578 8.9585275628 11.0559419661
H 9.2420539650 12.6296602174 10.3406082727
H 8.9573662688 11.0049013033 10.4884974863
15
Frame from Quantum Espresso Output
N 9.4600307548 11.7987311484 10.9007172248
C 11.7992721852 12.6261319677 10.9106071416
C 10.9338215782 11.5394065221 10.9460426050
C 13.1720381526 12.3693462696 10.9137967898
C 11.3673551273 10.2217007136 11.0152895475
C 13.6393700863 11.0538419681 10.9574417364
C 12.7433893338 9.9840760777 11.0182992651
H 11.4282052747 13.6513437690 10.8707524525
H 9.0646335046 11.9551837879 11.8393447331
H 13.8729481316 13.2029717221 10.8739417026
H 10.6612119169 9.3907430761 11.0612092541
H 14.7115897254 10.8606648126 10.9543708944
H 13.1088947161 8.9587940525 11.0643785336
H 9.2449100557 12.6280999140 10.3280609713
H 8.9601589215 11.0028415469 10.4780177683
15
Frame from Quantum Espresso Output
N 9.4598917867 11.7984949965 10.8935038656
C 11.7985451494 12.6268918748 10.9106600644
C 10.9334973613 11.5394866730 10.9419978227
C 13.1717254893 12.3696829454 10.9187580738
C 11.3666953572 10.2210820279 11.0143146489
C 13.6395715003 11.0538018936 10.9619577284
C 12.7432656687 9.9843975260 11.0221185244
H 11.4276893431 13.6530392988 10.8740361036
H 9.0599473109 11.9563196404 11.8302233080
H 13.8728761795 13.2030410419 10.8829481317
H 10.6606049682 9.3895591944 11.0622473280
H 14.7126523003 10.8606647643 10.9578233021
H 13.1093743299 8.9591435132 11.0713963066
H 9.2485053416 12.6275267593 10.3191901133
H 8.9629873784 11.0007451986 10.4710952988
15
Frame from Quantum Espresso Output
N 9.4602517184 11.7984478182 10.8922678425
C 11.7980234680 12.6273965666 10.9094657186
C 10.9335062459 11.5394679802 10.9403745030
C 13.1712027717 12.3697855195 10.9206525005
C 11.3662499779 10.2205773751 11.0130819722
C 13.6393012737 11.0538781246 10.9653067741
C 12.7429965107 9.9844896264 11.0238381810
H 11.4273213062 13.6541523569 10.8736240807
H 9.0581162345 11.9567797394 11.8281231503
H 13.8725339653 13.2027106427 10.8851244325
H 10.6603326192 9.3884629445 11.0610087148
H 14.7127322832 10.8607204768 10.9587009636
H 13.1096700268 8.9594080342 11.0725856258
H 9.2509327191 12.6278062293 10.3177038532
H 8.9646583442 10.9997939139 10.4704123074
15
Frame from Quantum Espresso Output
N 9.4607635064 11.7983952750 10.8908127086
C 11.7977601060 12.6276305557 10.9088705877
C 10.9336374695 11.5393864748 10.9397647179
C 13.1706615457 12.3698027481 10.9226628414
C 11.3660468046 10.2203463576 11.0123562455
C 13.6388100477 11.0541233805 10.9689777978
C 12.7427456140 9.9845455381 11.0256423282
H 11.4272010437 13.6546760688 10.8728751034
H 9.0565553928 11.9572306063 11.8256978663
H 13.8721765903 13.2024761952 10.8869226043
H 10.6604150279 9.3878195311 11.0593448072
H 14.7121291890 10.8609339539 10.9600691233
H 13.1098011901 8.9596911199 11.0732631717
H 9.2529981045 12.6277298043 10.3158137665
H 8.9661278325 10.9990897389 10.4691969502
15
Frame from Quantum Espresso Output
N 9.4615406995 11.7981304812 10.8884828265
C 11.7975259323 12.6276874707 10.9084870307
C 10.9338073030 11.5391717389 10.9393451231
C 13.1700273176 12.3698886709 10.9254164662
C 11.3659991244 10.2202502191 11.0115951523
C 13.6379713113 11.0545656275 10.9737959583
C 12.7424114568 9.9845240757 11.0279444392
H 11.4271006700 13.6546923126 10.8715582181
H 9.0549438466 11.9579197548 11.8220496116
H 13.8717021250 13.2023629715 10.8900584719
H 10.6607522417 9.3873584875 11.0565806563
H 14.7108050358 10.8614031985 10.9628541349
H 13.1099272842 8.9600428164 11.0747245276
H 9.2554537152 12.6273492366 10.3125313327
H 8.9678614011 10.9985302865 10.4668466708
15
Frame from Quantum Espresso Output
N 9.4622124941 11.7980174824 10.8848830882
C 11.7973921988 12.6275404329 10.9087801893
C 10.9339549997 11.5389316951 10.9388340753
C 13.1694867508 12.3700533882 10.9286118059
C 11.3660216734 10.2202311722 11.0111891037
C 13.6371646014 11.0550248317 10.9783458190
C 12.7421885326 9.9844945853 11.0303878569
H 11.4269707648 13.6543815926 10.8706436175
H 9.0533138558 11.9587418717 11.8171710475
H 13.8713324157 13.2025073627 10.8946462331
H 10.6611291714 9.3871878384 11.0539038137
H 14.7095189543 10.8619489204 10.9667889721
H 13.1100271187 8.9603551835 11.0774335993
H 9.2577281172 12.6265635232 10.3076952841
H 8.9693878160 10.9978974681 10.4629561143
15
Frame from Quantum Espresso Output
N 9.4628503286 11.7975649111 10.8792650416
C 11.7971917702 12.6273985038 10.9096776603
C 10.9340612821 11.5385896742 10.9379167688
C 13.1690059970 12.3703703291 10.9331199712
C 11.3661107146 10.2202509963 11.0109416896
C 13.6363064636 11.0555561158 10.9839731714
C 12.7419282441 9.9845063173 11.0336985503
H 11.4267562035 13.6538601635 10.8698924296
H 9.0511597416 11.9599111367 11.8099782648
H 13.8709080311 13.2028438499 10.9015967358
H 10.6615000356 9.3870271383 11.0506731526
H 14.7081485274 10.8626635393 10.9726973660
H 13.1101544515 8.9606876103 11.0818326658
H 9.2604604934 12.6254820486 10.3001445115
H 8.9712871804 10.9971650141 10.4568626407
15
Frame from Quantum Espresso Output
N 9.4637835743 11.7972998800 10.8705336488
C 11.7968686315 12.6270048847 10.9110708337
C 10.9341689217 11.5380312848 10.9360512806
C 13.1682338029 12.3708893905 10.9399844194
C 11.3661590896 10.2200933175 11.0104144851
C 13.6350843793 11.0563532306 10.9922638436
C 12.7416570756 9.9844999553 11.0385604224
H 11.4261756212 13.6529605249 10.8682077023
H 9.0488290867 11.9616937633 11.7992756598
H 13.8702604945 13.2035790720 10.9128136076
H 10.6619730189 9.3867295340 11.0450766886
H 14.7063472501 10.8638083278 10.9826985148
H 13.1103720317 8.9611357377 11.0890486442
H 9.2643516252 12.6237253698 10.2887653704
H 8.9735648616 10.9960730754 10.4475054986
15
Frame from Quantum Espresso Output
N 9.4648741804 11.7963860469 10.8573814599
C 11.7962366760 12.6266314751 10.9133234992
C 10.9342493528 11.5371110884 10.9329586016
C 13.1673533605 12.3717998776 10.9503107474
C 11.3662199260 10.2197541350 11.0096164513
C 13.6336238586 11.0574029086 11.0044123877
C 12.7412490120 9.9845614486 11.0457260388
H 11.4250685224 13.6516416893 10.8652857136
H 9.0457950885 11.9644257086 11.7835841363
H 13.8692409443 13.2047712184 10.9297105475
H 10.6623553162 9.3860499450 11.0362475769
H 14.7043354249 10.8654942158 10.9987289968
H 13.1107195583 8.9616694649 11.0998875410
H 9.2698120866 12.6214063030 10.2715271406
H 8.9766961573 10.9947718232 10.4335697816
15
Frame from Quantum Espresso Output
N 9.4664151967 11.7958709219 10.8368327968
C 11.7952051669 12.6259029781 10.9166699519
C 10.9342913519 11.5356943154 10.9271894415
C 13.1659201885 12.3731824119 10.9664444296
C 11.3660467939 10.2186786250 11.0079027484
C 13.6318888115 11.0589188593 11.0230978657
C 12.7409079478 9.9847227703 11.0566533560
H 11.4227891053 13.6498706800 10.8596976323
H 9.0426460404 11.9685974818 11.7599728605
H 13.8675643383 13.2068948752 10.9560974666
H 10.6625872427 9.3846096250 11.0213610389
H 14.7024525381 10.8680690842 11.0257333071
H 13.1112424091 8.9624176065 11.1166769297
H 9.2776237939 12.6178071035 10.2455692254
H 8.9802485397 10.9926400103 10.4123715696
15
Frame from Quantum Espresso Output
N 9.4669139097 11.7951007729 10.8261654900
C 11.7944128237 12.6257266584 10.9179902205
C 10.9342714970 11.5347205018 10.9230521747
C 13.1654092702 12.3740132490 10.9752327210
C 11.3658939154 10.2176903441 11.0061058831
C 13.6317043297 11.0595175975 11.0329276037
C 12.7408108075 9.9849535376 11.0621777314
H 11.4209515105 13.6489156537 10.8551063384
H 9.0427110473 11.9708786648 11.7485549853
H 13.8663517280 13.2081998774 10.9702041662
H 10.6622488540 9.3833130206 11.0115912903
H 14.7027638700 10.8694606432 11.0432374764
H 13.1115389011 8.9626669670 11.1253448512
H 9.2808844117 12.6165381406 10.2324492432
H 8.9809625888 10.9921817196 10.4021304447
15
Frame from Quantum Espresso Output
N 9.4670677210 11.7951083482 10.8174100349
C 11.7937027613 12.6255311602 10.9184960282
C 10.9342780885 11.5338504657 10.9182617166
C 13.1650884264 12.3745857603 10.9830255255
C 11.3656190648 10.2162172988 11.0033369838
C 13.6326428901 11.0597731671 11.0414079751
C 12.7411803592 9.9852908117 11.0664983401
H 11.4186471941 13.6484222467 10.8495570337
H 9.0442280931 11.9728260304 11.7402350104
H 13.8650317100 13.2095625336 10.9816021598
H 10.6614797853 9.3816613517 11.0014097274
H 14.7049570682 10.8705598892 11.0623994440
H 13.1117122147 8.9627704292 11.1316911848
H 9.2824167072 12.6156906028 10.2224587876
H 8.9797773809 10.9920272525 10.3944806681
15
Frame from Quantum Espresso Output
N 9.4665711852 11.7951104589 10.8162534683
C 11.7934318763 12.6255690033 10.9171193002
C 10.9343152674 11.5334097406 10.9150428118
C 13.1653661801 12.3744815758 10.9850658361
C 11.3656244654 10.2152299949 11.0002844672
C 13.6344151897 11.0594895914 11.0444691520
C 12.7417938924 9.9856367262 11.0667067863
H 11.4172739371 13.6484873449 10.8459057193
H 9.0466629388 11.9733188358 11.7405023564
H 13.8641848504 13.2101168681 10.9831611855
H 10.6608373488 9.3804899374 10.9962538783
H 14.7078252413 10.8707674371 11.0733446115
H 13.1117044674 8.9625887379 11.1313225248
H 9.2807605563 12.6162606569 10.2219437468
H 8.9770620683 10.9929204391 10.3948947754
