63
Final Frame from Quantum Espresso Output
Zn 1.2182900000 1.3071800000 0.7547010000
Zn 1.2182900000 6.5359000000 0.7547010000
Zn 1.1908711330 0.0016630407 3.6026467678
Zn 1.1925553049 5.2330615983 3.6144440886
Zn 1.2249221833 -1.2983525311 6.1545786009
Zn 1.2248800146 3.9218885399 6.1459362178
Zn 1.2182900000 3.9215400000 0.7547010000
Zn 1.2182900000 9.1502600000 0.7547010000
Zn 1.1845848837 2.6177809200 3.5906473436
Zn 1.1987222356 7.8472539888 3.6240878225
Zn 1.2236383994 1.3125810244 6.1195253859
Zn 1.2218026359 6.5398455257 6.1536028231
Zn 6.0914510000 1.3071800000 0.7547010000
Zn 6.0914510000 6.5359000000 0.7547010000
Zn 6.0770963128 0.0031893282 3.5624980013
Zn 6.0782995047 5.2323634623 3.5758866216
Zn 6.0950994187 -1.3008450234 6.0873902850
Zn 6.1051255007 3.9256611605 6.0825653578
Zn 6.0914510000 3.9215400000 0.7547010000
Zn 6.0914510000 9.1502600000 0.7547010000
Zn 6.0761806193 2.6173560714 3.5575951239
Zn 6.0802659343 7.8466997158 3.5744934339
Zn 6.1018156272 1.3119935169 6.0856514867
Zn 6.0963304654 6.5410546956 6.0893446529
Zn 3.6548710000 -0.0000000000 1.5094010000
Zn 3.6548710000 5.2287200000 1.5094010000
Zn 3.6313964224 -1.3077484250 3.7762780755
Zn 3.6229961114 3.9330193578 3.7615819745
Zn 3.6572549601 -2.6087148010 6.1566259669
Zn 3.6739756870 2.6315721303 6.0703265110
Zn 3.6548710000 2.6143600000 1.5094010000
Zn 3.6548710000 7.8430800000 1.5094010000
Zn 3.6234595122 1.3048540332 3.7667003238
Zn 3.6332835201 6.5423097505 3.7751743044
Zn 3.6648748939 0.0080761886 6.1442932205
Zn 3.6600153616 5.2351208006 6.1442023336
Zn 8.5280310000 -0.0000000000 1.5094010000
Zn 8.5280310000 5.2287200000 1.5094010000
Zn 8.5108044980 -1.3070939281 3.7886579877
Zn 8.5039906802 3.9256112575 3.7907757984
Zn 8.5328712766 -2.6109492008 6.1727319447
Zn 8.5388156736 2.6184989435 6.1772728864
Zn 8.5280310000 2.6143600000 1.5094010000
Zn 8.5280310000 7.8430800000 1.5094010000
Zn 8.5017399904 1.3085987534 3.7926955603
Zn 8.5133675286 6.5388490969 3.7875614020
Zn 8.5343174693 0.0018675936 6.1748983101
Zn 8.5360096575 5.2336901412 6.1755826448
C 1.3752806448 0.9153809787 14.4109395199
C 1.9555255145 1.1754601821 13.1364209245
C 3.2081681216 1.8120297288 13.0329971682
C 1.2886513464 0.7956531909 11.9540772124
C 3.7695445248 2.0628316089 11.7913373095
C 1.8483422521 1.0442303817 10.7114578521
C 3.1007548988 1.6869719990 10.6071351380
N 0.9000353706 0.7031043772 15.4565535298
N 3.6750085777 1.8903396817 9.3762509485
H 3.0857435240 1.8291637001 8.5507405684
H 4.4494586125 2.5376383410 9.2912067091
H 0.3225302701 0.2982303920 12.0268750452
H 3.7367141803 2.1081165311 13.9389645713
H 1.3227866903 0.7406134524 9.8024224053
H 4.7420359535 2.5537514951 11.7241946196
