67
Final Frame from Quantum Espresso Output
Zn 1.2182902100 1.3071799380 0.7547006810
Zn 1.2182902100 6.5358996490 0.7547006810
Zn 1.2182902100 0.0000000010 3.0188027470
Zn 1.2182902100 5.2287197120 3.0188027470
Zn 1.2185726075 -1.3073880994 5.6729282852
Zn 1.2186851431 3.9215451479 5.6720151579
Zn 1.2195241261 -2.6168310277 8.3028972855
Zn 1.2249244829 2.6119144327 8.2902803185
Zn 1.2182902100 3.9215397940 0.7547006810
Zn 1.2182902100 9.1502595050 0.7547006810
Zn 1.2182902100 2.6143598570 3.0188027470
Zn 1.2182902100 7.8430795680 3.0188027470
Zn 1.2186883199 1.3072854268 5.6723424169
Zn 1.2185625130 6.5357747424 5.6727099542
Zn 1.2223061166 0.0028995760 8.3011876439
Zn 1.2215456535 5.2200966286 8.2995772628
Zn 6.0914510490 1.3071799380 0.7547006810
Zn 6.0914510490 6.5358996490 0.7547006810
Zn 6.0914510490 0.0000000010 3.0188027470
Zn 6.0914510490 5.2287197120 3.0188027470
Zn 6.0911338514 -1.3072242637 5.6748546444
Zn 6.0910857638 3.9213990650 5.6741431289
Zn 6.0939729769 -2.6189766188 8.3056067386
Zn 6.0907926273 2.6080988370 8.7628908077
Zn 6.0914510490 3.9215397940 0.7547006810
Zn 6.0914510490 9.1502595050 0.7547006810
Zn 6.0914510490 2.6143598570 3.0188027470
Zn 6.0914510490 7.8430795680 3.0188027470
Zn 6.0911030401 1.3076064174 5.6744400348
Zn 6.0911314819 6.5354481156 5.6746346244
Zn 6.0941556260 0.0037454691 8.2892201862
Zn 6.0941822058 5.2155698325 8.3425748773
Zn 3.6548706290 -0.0000000190 1.5094013850
Zn 3.6548706290 5.2287196920 1.5094013850
Zn 3.6548706290 -1.3071799560 3.7735034500
Zn 3.6548706290 3.9215397550 3.7735034500
Zn 3.6546710580 -2.6147701593 6.0778389286
Zn 3.6547432516 2.6146750712 6.0771464013
Zn 3.6649786557 -3.9244512413 8.4688968206
Zn 3.6866362014 1.3049383542 8.4639348471
Zn 3.6548706290 2.6143598370 1.5094013850
Zn 3.6548706290 7.8430795480 1.5094013850
Zn 3.6548706290 1.3071799000 3.7735034500
Zn 3.6548706290 6.5358996110 3.7735034500
Zn 3.6547437702 0.0001669099 6.0773502731
Zn 3.6547864959 5.2284186199 6.0775758154
Zn 3.6588022111 -1.3100690278 8.4697445106
Zn 3.6902337884 3.9122134391 8.4650126485
Zn 8.5280314680 -0.0000000190 1.5094013850
Zn 8.5280314680 5.2287196920 1.5094013850
Zn 8.5280314680 -1.3071799560 3.7735034500
Zn 8.5280314680 3.9215397550 3.7735034500
Zn 8.5281647867 -2.6147587956 6.0779299812
Zn 8.5281732184 2.6146472247 6.0772010317
Zn 8.5251476576 -3.9245973359 8.4691222957
Zn 8.5113630301 1.3048979729 8.4611424503
Zn 8.5280314680 2.6143598370 1.5094013850
Zn 8.5280314680 7.8430795480 1.5094013850
Zn 8.5280314680 1.3071799000 3.7735034500
Zn 8.5280314680 6.5358996110 3.7735034500
Zn 8.5282171944 -0.0000137934 6.0774321744
Zn 8.5281738077 5.2286143460 6.0776528160
Zn 8.5277840650 -1.3108382875 8.4699352614
Zn 8.5022584257 3.9122327032 8.4651146359
O 6.1818541542 2.3706597689 11.3487999060
H 7.1440226616 2.3297634188 11.5408755231
H 5.8742599029 1.4507733243 11.5031074507
