62
Final Frame from Quantum Espresso Output
Zn 0.0000000000 1.5094010000 1.2182900000
Zn 5.2287200000 1.5094010000 1.2182900000
Zn 0.0005388567 1.5097098791 6.1725706210
Zn 5.2269021427 1.5101203048 6.1592832093
Zn -1.3071800000 3.7735030000 1.2182900000
Zn 3.9215400000 3.7735030000 1.2182900000
Zn -1.3076389751 3.7756970381 6.1669098172
Zn 3.9212077838 3.7752499170 6.1203712793
Zn -2.6143600000 6.0376050000 1.2182900000
Zn 2.6143600000 6.0376050000 1.2182900000
Zn -2.6159181417 6.0418066039 6.1781461396
Zn 2.6173873819 6.0412393745 6.0379113065
Zn -3.9215400000 8.3017080000 1.2182900000
Zn 1.3071800000 8.3017080000 1.2182900000
Zn -3.9232592215 8.3028879930 6.1960621375
Zn 1.3069636796 8.3041838383 6.1175042307
Zn 2.6143600000 1.5094010000 1.2182900000
Zn 7.8430800000 1.5094010000 1.2182900000
Zn 2.6135286314 1.5105538518 6.1766883073
Zn 7.8422544113 1.5102571580 6.1729213261
Zn 1.3071800000 3.7735030000 1.2182900000
Zn 6.5359000000 3.7735030000 1.2182900000
Zn 1.3101479194 3.7777060950 6.1425219235
Zn 6.5343887370 3.7758358397 6.1747095489
Zn 0.0000000000 6.0376050000 1.2182900000
Zn 5.2287200000 6.0376050000 1.2182900000
Zn 0.0036174242 6.0417704267 6.1521684836
Zn 5.2236907286 6.0400472874 6.2306261305
Zn -1.3071800000 8.3017080000 1.2182900000
Zn 3.9215400000 8.3017080000 1.2182900000
Zn -1.3082416288 8.3036910297 6.1788946728
Zn 3.9193250345 8.3019268484 6.2024627434
Zn 1.3041219886 0.7513772105 3.7043438329
Zn 6.5353031511 0.7583309556 3.6873267256
Zn -0.0041627352 3.0172316883 3.6916546426
Zn 5.2311519375 3.0187633272 3.6882109556
Zn -1.3121484055 5.2829822154 3.6922557694
Zn 3.9293371168 5.2828329601 3.6677395225
Zn -2.6191502397 7.5472660656 3.7083914213
Zn 2.6163075685 7.5554421182 3.6664111562
Zn 3.9193403411 0.7537762277 3.6939479278
Zn 9.1514741863 0.7563131746 3.6976638127
Zn 2.6122633940 3.0160083656 3.6773484128
Zn 7.8425659467 3.0204247659 3.6869450672
Zn 1.3000273672 5.2808141320 3.6555524743
Zn 6.5367984582 5.2854835785 3.7030844112
Zn -0.0049193466 7.5482091361 3.6792490854
Zn 5.2310612339 7.5486394040 3.7026300935
C 2.7788130136 6.1584714002 10.6102719337
C 2.2582164946 7.2693489650 12.7056583071
C 2.2720595127 7.2637916610 11.3099980545
C 3.2655384202 5.0844591577 12.7320937018
C 3.2830911751 5.0701736270 11.3369401294
C 2.7485999705 6.1794955393 13.4279434436
N 2.8288533262 6.1646469682 9.2027252008
H 2.7981095983 5.2335529500 8.7911285108
H 1.8592356888 8.1367869542 13.2335215068
H 3.6596111712 4.2275478077 13.2809504825
H 3.6884103321 4.2079675917 10.8000979676
H 2.7268523738 6.1828643720 14.5176776092
H 1.8870013760 8.1218846513 10.7530716708
H 2.1110854170 6.7451773897 8.7726777477
