64
Frame from Quantum Espresso Output
Zn -0.0000000130 1.5094013740 1.2182902590
Zn 5.2287196980 1.5094013740 1.2182902590
Zn 0.0010879583 1.5098078406 6.1723495678
Zn 5.2276445773 1.5096481919 6.1877707496
Zn -1.3071799410 3.7735034240 1.2182902590
Zn 3.9215397700 3.7735034240 1.2182902590
Zn -1.3066029014 3.7741565810 6.1791514404
Zn 3.9208433303 3.7736466949 6.1841540610
Zn -2.6143598690 6.0376054730 1.2182902590
Zn 2.6143598420 6.0376054730 1.2182902590
Zn -2.6142464551 6.0378598325 6.1861391621
Zn 2.6141570254 6.0366783956 6.1777201573
Zn -3.9215397970 8.3017075230 1.2182902590
Zn 1.3071799140 8.3017075230 1.2182902590
Zn -3.9209726870 8.3016578678 6.1800471561
Zn 1.3065361172 8.3009086570 6.1816137336
Zn 2.6143598430 1.5094013740 1.2182902590
Zn 7.8430795540 1.5094013740 1.2182902590
Zn 2.6135705290 1.5093131853 6.1809361324
Zn 7.8438439545 1.5102090370 6.1796469313
Zn 1.3071799150 3.7735034240 1.2182902590
Zn 6.5358996260 3.7735034240 1.2182902590
Zn 1.3068156691 3.7733048165 6.1749842531
Zn 6.5361635740 3.7744393666 6.1877311301
Zn -0.0000000130 6.0376054730 1.2182902590
Zn 5.2287196980 6.0376054730 1.2182902590
Zn -0.0007277387 6.0369210874 6.1811355684
Zn 5.2293516002 6.0377764294 6.1834813682
Zn -1.3071799410 8.3017075230 1.2182902590
Zn 3.9215397700 8.3017075230 1.2182902590
Zn -1.3082599682 8.3011536255 6.1862949513
Zn 3.9228930605 8.3013931494 6.1748835613
Zn 1.3071799410 0.7547006760 3.6548707760
Zn 6.5358996520 0.7547006760 3.6548707760
Zn 1.3062093479 0.7556807533 8.7015195616
Zn 6.5369647245 0.7541942555 8.7015462510
Zn 0.0000000130 3.0188027250 3.6548707760
Zn 5.2287197240 3.0188027250 3.6548707760
Zn 0.0012016581 3.0182673185 8.6993334773
Zn 5.2275473001 3.0193227368 8.7080792777
Zn -1.3071799150 5.2829047750 3.6548707760
Zn 3.9215397960 5.2829047750 3.6548707760
Zn -1.3059560350 5.2820834317 8.7088845457
Zn 3.9202822620 5.2832238640 8.7029870834
Zn -2.6143598430 7.5470068250 3.6548707760
Zn 2.6143598680 7.5470068250 3.6548707760
Zn -2.6152595012 7.5476377492 8.7112079163
Zn 2.6153319027 7.5462499988 8.6961666679
Zn 3.9215397970 0.7547006760 3.6548707760
Zn 9.1502595080 0.7547006760 3.6548707760
Zn 3.9197426275 0.7550611715 8.7089133789
Zn 9.1523137478 0.7548123643 8.6941743144
Zn 2.6143598690 3.0188027250 3.6548707760
Zn 7.8430795800 3.0188027250 3.6548707760
Zn 2.6124271948 3.0190370573 8.7035618017
Zn 7.8450603415 3.0186222255 8.7044157121
Zn 1.3071799410 5.2829047750 3.6548707760
Zn 6.5358996520 5.2829047750 3.6548707760
Zn 1.3073923362 5.2816220938 8.7015433471
Zn 6.5356395406 5.2836687251 8.7102827289
Zn 0.0000000130 7.5470068250 3.6548707760
Zn 5.2287197240 7.5470068250 3.6548707760
Zn 0.0002766259 7.5458574540 8.7069877805
Zn 5.2284629492 7.5480828664 8.7013131381
64
Frame from Quantum Espresso Output
Zn -0.0000000130 1.5094013740 1.2182902590
Zn 5.2287196980 1.5094013740 1.2182902590
Zn 0.0011006381 1.5098119671 6.1722255317
Zn 5.2276368273 1.5096655913 6.1878021248
Zn -1.3071799410 3.7735034240 1.2182902590
Zn 3.9215397700 3.7735034240 1.2182902590
Zn -1.3067751565 3.7742876554 6.1790794597
Zn 3.9210129183 3.7735922527 6.1841559205
Zn -2.6143598690 6.0376054730 1.2182902590
Zn 2.6143598420 6.0376054730 1.2182902590
Zn -2.6142570028 6.0378551958 6.1861199858
Zn 2.6141668106 6.0366601733 6.1776616634
Zn -3.9215397970 8.3017075230 1.2182902590
Zn 1.3071799140 8.3017075230 1.2182902590
Zn -3.9208095202 8.3015205890 6.1799871105
Zn 1.3063534951 8.3009611464 6.1815910228
Zn 2.6143598430 1.5094013740 1.2182902590
Zn 7.8430795540 1.5094013740 1.2182902590
Zn 2.6137473973 1.5092291935 6.1808928713
Zn 7.8436625099 1.5103259923 6.1796056434
Zn 1.3071799150 3.7735034240 1.2182902590
Zn 6.5358996260 3.7735034240 1.2182902590
Zn 1.3068332661 3.7733476823 6.1748818293
Zn 6.5361455755 3.7744676210 6.1877526800
Zn -0.0000000130 6.0376054730 1.2182902590
Zn 5.2287196980 6.0376054730 1.2182902590
Zn -0.0008856799 6.0370217873 6.1810820652
Zn 5.2295061756 6.0376699006 6.1834694150
Zn -1.3071799410 8.3017075230 1.2182902590
Zn 3.9215397700 8.3017075230 1.2182902590
Zn -1.3082498354 8.3011246073 6.1862871135
Zn 3.9229095375 8.3013333453 6.1747997123
Zn 1.3071799410 0.7547006760 3.6548707760
Zn 6.5358996520 0.7547006760 3.6548707760
Zn 1.3062622291 0.7556719095 8.7016157900
Zn 6.5369035326 0.7542191404 8.7015099477
Zn 0.0000000130 3.0188027250 3.6548707760
Zn 5.2287197240 3.0188027250 3.6548707760
Zn 0.0012048427 3.0182917770 8.6994399688
Zn 5.2275417910 3.0193256505 8.7080634020
Zn -1.3071799150 5.2829047750 3.6548707760
Zn 3.9215397960 5.2829047750 3.6548707760
Zn -1.3059863292 5.2821119001 8.7089513784
Zn 3.9203124066 5.2831842158 8.7030251898
Zn -2.6143598430 7.5470068250 3.6548707760
Zn 2.6143598680 7.5470068250 3.6548707760
Zn -2.6152352584 7.5476239166 8.7112667917
Zn 2.6153090940 7.5462258594 8.6961815661
Zn 3.9215397970 0.7547006760 3.6548707760
Zn 9.1502595080 0.7547006760 3.6548707760
Zn 3.9197462089 0.7550569527 8.7089362171
Zn 9.1523237010 0.7548319954 8.6942131207
Zn 2.6143598690 3.0188027250 3.6548707760
Zn 7.8430795800 3.0188027250 3.6548707760
Zn 2.6124629436 3.0190238780 8.7036453325
Zn 7.8450255300 3.0186699501 8.7044299422
Zn 1.3071799410 5.2829047750 3.6548707760
Zn 6.5358996520 5.2829047750 3.6548707760
Zn 1.3073743657 5.2816197352 8.7016288505
Zn 6.5356542574 5.2836599478 8.7103026619
Zn 0.0000000130 7.5470068250 3.6548707760
Zn 5.2287197240 7.5470068250 3.6548707760
Zn 0.0002204119 7.5458609147 8.7070129851
Zn 5.2285160839 7.5480466121 8.7013687737
64
Frame from Quantum Espresso Output
Zn -0.0000000130 1.5094013740 1.2182902590
Zn 5.2287196980 1.5094013740 1.2182902590
Zn 0.0009672701 1.5097664644 6.1726102187
Zn 5.2277482449 1.5095930808 6.1873087630
Zn -1.3071799410 3.7735034240 1.2182902590
Zn 3.9215397700 3.7735034240 1.2182902590
Zn -1.3063719229 3.7738875604 6.1791594279
Zn 3.9206233662 3.7737133243 6.1838547922
Zn -2.6143598690 6.0376054730 1.2182902590
Zn 2.6143598420 6.0376054730 1.2182902590
Zn -2.6142367979 6.0378415726 6.1858921844
Zn 2.6141501874 6.0367976611 6.1776942570
Zn -3.9215397970 8.3017075230 1.2182902590
Zn 1.3071799140 8.3017075230 1.2182902590
Zn -3.9212729447 8.3018915921 6.1800104036
Zn 1.3069101852 8.3009087738 6.1814009242
Zn 2.6143598430 1.5094013740 1.2182902590
Zn 7.8430795540 1.5094013740 1.2182902590
Zn 2.6133734869 1.5094697088 6.1808349476
Zn 7.8440575705 1.5099117625 6.1795191443
Zn 1.3071799150 3.7735034240 1.2182902590
Zn 6.5358996260 3.7735034240 1.2182902590
Zn 1.3068312798 3.7732602438 6.1751536362
Zn 6.5361493634 3.7743012135 6.1873106112
Zn -0.0000000130 6.0376054730 1.2182902590
Zn 5.2287196980 6.0376054730 1.2182902590
Zn -0.0003941625 6.0368201367 6.1810603843
Zn 5.2290311832 6.0379145550 6.1832350289
Zn -1.3071799410 8.3017075230 1.2182902590
Zn 3.9215397700 8.3017075230 1.2182902590
Zn -1.3081728198 8.3012685333 6.1860020419
Zn 3.9227058046 8.3015275799 6.1749638143
Zn 1.3071799410 0.7547006760 3.6548707760
Zn 6.5358996520 0.7547006760 3.6548707760
Zn 1.3061930462 0.7555975515 8.7010815921
Zn 6.5370145388 0.7541845043 8.7014153779
Zn 0.0000000130 3.0188027250 3.6548707760
Zn 5.2287197240 3.0188027250 3.6548707760
Zn 0.0010716017 3.0182670767 8.6988937409
Zn 5.2276864047 3.0192567974 8.7078332229
Zn -1.3071799150 5.2829047750 3.6548707760
Zn 3.9215397960 5.2829047750 3.6548707760
Zn -1.3060136470 5.2820959985 8.7084144340
Zn 3.9203397322 5.2832870663 8.7026761737
Zn -2.6143598430 7.5470068250 3.6548707760
Zn 2.6143598680 7.5470068250 3.6548707760
Zn -2.6152269173 7.5476044720 8.7107303954
Zn 2.6152988155 7.5463949638 8.6959851686
Zn 3.9215397970 0.7547006760 3.6548707760
Zn 9.1502595080 0.7547006760 3.6548707760
Zn 3.9199180396 0.7550326657 8.7085483689
Zn 9.1520837386 0.7547482280 8.6939540859
Zn 2.6143598690 3.0188027250 3.6548707760
Zn 7.8430795800 3.0188027250 3.6548707760
Zn 2.6125382150 3.0190425603 8.7031321641
Zn 7.8449464234 3.0185202056 8.7041277299
Zn 1.3071799410 5.2829047750 3.6548707760
Zn 6.5358996520 5.2829047750 3.6548707760
Zn 1.3074080423 5.2817564900 8.7011270735
Zn 6.5356311164 5.2836100070 8.7099123907
Zn 0.0000000130 7.5470068250 3.6548707760
Zn 5.2287197240 7.5470068250 3.6548707760
Zn 0.0003821602 7.5459684203 8.7066390524
Zn 5.2283688379 7.5480597522 8.7009756990
64
Frame from Quantum Espresso Output
Zn -0.0000000130 1.5094013740 1.2182902590
Zn 5.2287196980 1.5094013740 1.2182902590
Zn 0.0009672701 1.5097664644 6.1726102187
Zn 5.2277482449 1.5095930808 6.1873087630
Zn -1.3071799410 3.7735034240 1.2182902590
Zn 3.9215397700 3.7735034240 1.2182902590
Zn -1.3063719229 3.7738875604 6.1791594279
Zn 3.9206233662 3.7737133243 6.1838547922
Zn -2.6143598690 6.0376054730 1.2182902590
Zn 2.6143598420 6.0376054730 1.2182902590
Zn -2.6142367979 6.0378415726 6.1858921844
Zn 2.6141501874 6.0367976611 6.1776942570
Zn -3.9215397970 8.3017075230 1.2182902590
Zn 1.3071799140 8.3017075230 1.2182902590
Zn -3.9212729447 8.3018915921 6.1800104036
Zn 1.3069101852 8.3009087738 6.1814009242
Zn 2.6143598430 1.5094013740 1.2182902590
Zn 7.8430795540 1.5094013740 1.2182902590
Zn 2.6133734869 1.5094697088 6.1808349476
Zn 7.8440575705 1.5099117625 6.1795191443
Zn 1.3071799150 3.7735034240 1.2182902590
Zn 6.5358996260 3.7735034240 1.2182902590
Zn 1.3068312798 3.7732602438 6.1751536362
Zn 6.5361493634 3.7743012135 6.1873106112
Zn -0.0000000130 6.0376054730 1.2182902590
Zn 5.2287196980 6.0376054730 1.2182902590
Zn -0.0003941625 6.0368201367 6.1810603843
Zn 5.2290311832 6.0379145550 6.1832350289
Zn -1.3071799410 8.3017075230 1.2182902590
Zn 3.9215397700 8.3017075230 1.2182902590
Zn -1.3081728198 8.3012685333 6.1860020419
Zn 3.9227058046 8.3015275799 6.1749638143
Zn 1.3071799410 0.7547006760 3.6548707760
Zn 6.5358996520 0.7547006760 3.6548707760
Zn 1.3061930462 0.7555975515 8.7010815921
Zn 6.5370145388 0.7541845043 8.7014153779
Zn 0.0000000130 3.0188027250 3.6548707760
Zn 5.2287197240 3.0188027250 3.6548707760
Zn 0.0010716017 3.0182670767 8.6988937409
Zn 5.2276864047 3.0192567974 8.7078332229
Zn -1.3071799150 5.2829047750 3.6548707760
Zn 3.9215397960 5.2829047750 3.6548707760
Zn -1.3060136470 5.2820959985 8.7084144340
Zn 3.9203397322 5.2832870663 8.7026761737
Zn -2.6143598430 7.5470068250 3.6548707760
Zn 2.6143598680 7.5470068250 3.6548707760
Zn -2.6152269173 7.5476044720 8.7107303954
Zn 2.6152988155 7.5463949638 8.6959851686
Zn 3.9215397970 0.7547006760 3.6548707760
Zn 9.1502595080 0.7547006760 3.6548707760
Zn 3.9199180396 0.7550326657 8.7085483689
Zn 9.1520837386 0.7547482280 8.6939540859
Zn 2.6143598690 3.0188027250 3.6548707760
Zn 7.8430795800 3.0188027250 3.6548707760
Zn 2.6125382150 3.0190425603 8.7031321641
Zn 7.8449464234 3.0185202056 8.7041277299
Zn 1.3071799410 5.2829047750 3.6548707760
Zn 6.5358996520 5.2829047750 3.6548707760
Zn 1.3074080423 5.2817564900 8.7011270735
Zn 6.5356311164 5.2836100070 8.7099123907
Zn 0.0000000130 7.5470068250 3.6548707760
Zn 5.2287197240 7.5470068250 3.6548707760
Zn 0.0003821602 7.5459684203 8.7066390524
Zn 5.2283688379 7.5480597522 8.7009756990
