51
Final Frame from Quantum Espresso Output
Zn 0.0000000000 1.5094010000 1.2182900000
Zn 5.2287200000 1.5094010000 1.2182900000
Zn 0.0002549034 1.5173447393 6.2607043310
Zn 5.2299275832 1.5179648092 6.2611791019
Zn -1.3071800000 3.7735030000 1.2182900000
Zn 3.9215400000 3.7735030000 1.2182900000
Zn -1.3058529755 3.7829757418 6.2590679922
Zn 3.9195563997 3.7894696698 6.2292010848
Zn -2.6143600000 6.0376050000 1.2182900000
Zn 2.6143600000 6.0376050000 1.2182900000
Zn -2.6140501997 6.0477532919 6.2612236614
Zn 2.6138257075 6.0504208649 6.6203649906
Zn -3.9215400000 8.3017080000 1.2182900000
Zn 1.3071800000 8.3017080000 1.2182900000
Zn -3.9213779982 8.3106869172 6.2561802630
Zn 1.3135954725 8.3033812990 6.2474069549
Zn 2.6143600000 1.5094010000 1.2182900000
Zn 7.8430800000 1.5094010000 1.2182900000
Zn 2.6152234486 1.5180755495 6.2600378602
Zn 7.8442255857 1.5162330683 6.2566727504
Zn 1.3071800000 3.7735030000 1.2182900000
Zn 6.5359000000 3.7735030000 1.2182900000
Zn 1.3124441561 3.7884902875 6.2274977294
Zn 6.5368479346 3.7830815071 6.2600960044
Zn 0.0000000000 6.0376050000 1.2182900000
Zn 5.2287200000 6.0376050000 1.2182900000
Zn 0.0097402204 6.0472667727 6.2351626923
Zn 5.2202873211 6.0474468754 6.2379777044
Zn -1.3071800000 8.3017080000 1.2182900000
Zn 3.9215400000 8.3017080000 1.2182900000
Zn -1.3053099419 8.3107180363 6.2552949709
Zn 3.9185006226 8.3023236949 6.2494181932
Zn 1.3091041999 0.7590863678 3.7334172817
Zn 6.5391637510 0.7576331689 3.7366598474
Zn 0.0014237961 3.0258972398 3.7394823342
Zn 5.2300923005 3.0264916889 3.7402196103
Zn -1.3036821767 5.2877873229 3.7400939920
Zn 3.9169294579 5.2926569677 3.7515598427
Zn -2.6133827712 7.5530700721 3.7327252571
Zn 2.6162904695 7.5452969287 3.7449451331
Zn 3.9222656562 0.7595156793 3.7334113304
Zn 9.1501445871 0.7571607994 3.7369968601
Zn 2.6161561213 3.0270544461 3.7424082030
Zn 7.8442475390 3.0240263460 3.7334354970
Zn 1.3154163530 5.2925475467 3.7490930435
Zn 6.5345216301 5.2880685968 3.7416347281
Zn 0.0047834407 7.5508033996 3.7430648457
Zn 5.2267303945 7.5504061133 3.7450541158
O 2.6255704208 5.9664780980 9.1355209597
H 3.4096561666 5.4216598680 9.3287686399
H 1.8672634391 5.3989340482 9.3630602355
