65
Final Frame from Quantum Espresso Output
Zn -1.0735560000 1.0841420000 1.1977640000
Zn -2.3094850000 6.1646920000 1.1977640000
Zn -4.9037718395 0.1523215956 3.6495280221
Zn -6.1614036588 5.2162902282 3.6644018368
Zn -8.8821096777 -0.8386099891 5.8495336636
Zn -10.0213295113 4.2561321789 6.2566480986
Zn -1.6915200000 3.6244170000 1.1977640000
Zn -2.9274500000 8.7049670000 1.1977640000
Zn -5.5379725438 2.6892921295 3.6606351107
Zn -6.7606527730 7.7587930769 3.6588709736
Zn -9.4982436693 1.6859138504 5.8675242863
Zn -10.7565900592 6.7684176366 5.8241457860
Zn 4.4565960000 1.0841420000 1.1977640000
Zn 3.2206660000 6.1646920000 1.1977640000
Zn 0.6434336130 0.1594405875 3.6125057346
Zn -0.5657768347 5.2146618346 3.6354586035
Zn -3.2807988690 -0.7982801249 5.7446156715
Zn -4.5163313464 4.2788112590 5.7456111363
Zn 3.8386310000 3.6244170000 1.1977640000
Zn 2.6027020000 8.7049670000 1.1977640000
Zn 0.0761674302 2.7201487273 3.7053005239
Zn -1.2167198810 7.7667413961 3.5867218390
Zn -3.8967053336 1.7431778158 5.7461223460
Zn -5.1347540005 6.8124725932 5.7399489019
Zn 1.6915200000 0.4114910000 0.8555450000
Zn 0.4555910000 5.4920410000 0.8555450000
Zn -2.3444917942 -0.5648586305 2.9528572500
Zn -3.5979448033 4.5037572709 2.9487572186
Zn -6.4120800192 -1.5686111516 5.0612667991
Zn -7.6907118339 3.5041575862 5.0935018507
Zn 1.0735560000 2.9517660000 0.8555450000
Zn -0.1623740000 8.0323160000 0.8555450000
Zn -2.9703551084 1.9722799122 2.9495012342
Zn -4.2044684495 7.0449949087 2.9530244951
Zn -7.0285031554 0.9760850631 5.0760500404
Zn -8.2981343099 6.0314814053 5.0861067222
Zn 7.2216720000 0.4114910000 0.8555450000
Zn 5.9857420000 5.4920410000 0.8555450000
Zn 3.1845604437 -0.5675446606 2.9560238613
Zn 1.9543949009 4.5087994667 2.9550527434
Zn -0.7824544303 -1.5374593888 5.0836255936
Zn -2.0205893995 3.5395128063 5.0769045311
Zn 6.6037070000 2.9517660000 0.8555450000
Zn 5.3677780000 8.0323160000 0.8555450000
Zn 2.5744050130 1.9680273697 2.9631186432
Zn 1.3296516628 7.0478718721 2.9578881394
Zn -1.3976008429 1.0088851160 5.0975684595
Zn -2.6253430124 6.0805440713 5.0850724803
C -8.6913218210 -1.2732378315 10.5864666297
C -10.6831800082 1.8174225689 9.5575405075
C -8.0225236122 1.0650289399 9.8930800997
C -9.6667486471 2.7284474090 9.2605413185
C -9.0332059358 0.1326364746 10.1724528686
C -8.3320156648 2.3476411144 9.4378525598
C -10.3653127223 0.5347594447 10.0140958645
N -9.9843045947 4.0153513592 8.7149767021
H -8.1007837930 -1.2992301338 11.5143930311
H -11.7266597073 2.1167475607 9.4352493255
H -6.9746423585 0.7940294687 10.0512803796
H -9.6031972117 -1.8628662000 10.7475047673
H -9.2789347345 4.7093781068 8.9508130602
H -10.8851859316 4.3545316857 9.0488903036
H -7.5362028851 3.0632307823 9.2147549711
H -11.1725101941 -0.1564030539 10.2703245785
H -8.1037026251 -1.7581171154 9.7912187935
