65
Final Frame from Quantum Espresso Output
Zn 1.2182900000 1.3071800000 0.7547010000
Zn 1.2182900000 6.5359000000 0.7547010000
Zn 1.2236406333 -0.0005909593 3.5723560778
Zn 1.2241691534 5.2289186784 3.5730305899
Zn 1.2202023226 -1.3083656388 6.1051816408
Zn 1.2210448485 3.9223377123 6.1108000508
Zn 1.2182900000 3.9215400000 0.7547010000
Zn 1.2182900000 9.1502600000 0.7547010000
Zn 1.2237358048 2.6149529867 3.5776623372
Zn 1.2242796706 7.8418202022 3.5719214824
Zn 1.2213594108 1.3073264094 6.1120319423
Zn 1.2202433920 6.5346977183 6.1050385264
Zn 6.0914510000 1.3071800000 0.7547010000
Zn 6.0914510000 6.5359000000 0.7547010000
Zn 6.0952692728 -0.0008353939 3.5734156955
Zn 6.0956228093 5.2287092739 3.5746964617
Zn 6.0945857012 -1.3082253539 6.1046640442
Zn 6.0910780558 3.9219479116 6.1138035229
Zn 6.0914510000 3.9215400000 0.7547010000
Zn 6.0914510000 9.1502600000 0.7547010000
Zn 6.0964105685 2.6152056719 3.5785605724
Zn 6.0943691256 7.8417250351 3.5729209855
Zn 6.0924978245 1.3070911688 6.1101076667
Zn 6.0938373456 6.5348503580 6.1060032371
Zn 3.6548710000 -0.0000000000 1.5094010000
Zn 3.6548710000 5.2287200000 1.5094010000
Zn 3.6612984253 -1.3077051260 3.7826786153
Zn 3.6624665138 3.9228490916 3.7822065492
Zn 3.6588111104 -2.6162341987 6.1532731640
Zn 3.6577970104 2.6144990588 6.1460027433
Zn 3.6548710000 2.6143600000 1.5094010000
Zn 3.6548710000 7.8430800000 1.5094010000
Zn 3.6617829030 1.3069556123 3.7829211703
Zn 3.6615792138 6.5344513164 3.7814951438
Zn 3.6587942113 -0.0005240947 6.1546083639
Zn 3.6584604247 5.2280050527 6.1578440427
Zn 8.5280310000 -0.0000000000 1.5094010000
Zn 8.5280310000 5.2287200000 1.5094010000
Zn 8.5315511588 -1.3078712485 3.7788181980
Zn 8.5328064719 3.9216910407 3.7797089422
Zn 8.5288550807 -2.6161164590 6.1461458981
Zn 8.5275506075 2.6153714849 6.1499825801
Zn 8.5280310000 2.6143600000 1.5094010000
Zn 8.5280310000 7.8430800000 1.5094010000
Zn 8.5320214916 1.3081487801 3.7809453005
Zn 8.5321132146 6.5347777938 3.7774760712
Zn 8.5290288854 -0.0002536875 6.1462063255
Zn 8.5277725927 5.2281906288 6.1472510789
C 3.0595927655 3.6837479139 13.2567162747
C 3.6467312358 2.6144097068 13.9552183412
C 3.0597949468 3.7115737469 11.8633840588
C 4.2228323052 1.5788006391 13.2041325351
C 3.6404904834 2.6848511173 11.1052285269
C 4.2162942164 1.6208788006 11.8089200220
C 3.6544894638 2.7364759975 9.5985920070
N 3.7167501019 2.6196666770 15.3553454991
H 2.9928491002 3.1628267817 15.8151471723
H 4.1901572110 3.6234213384 9.2208625741
H 2.6073382635 4.5072540482 13.8143571138
H 3.8173121274 1.7025401017 15.7787896810
H 2.5970336690 4.5601529051 11.3528905340
H 4.6914942471 0.7357130858 13.7173394922
H 4.6778581702 0.8001228508 11.2540426839
H 4.1498863023 1.8533477523 9.1695793671
H 2.6385657507 2.7785251687 9.1714356954
