14
Frame from Quantum Espresso Output
N -2.1839082156 0.1103139688 0.6715482822
C -0.8529502249 0.1355883083 0.3155613278
C -0.1393306522 1.3586689367 0.1754092369
C -0.1216240984 -1.0600705933 0.0698255203
C 1.1943909488 1.3744901345 -0.1817286991
C 1.2119797490 -1.0252436497 -0.2863889835
C 1.8859054782 0.1875828283 -0.4163719966
H -0.6731601181 2.2981352250 0.3576007377
H -0.6415742485 -2.0195319811 0.1691231233
H 1.7209931934 2.3357957229 -0.2827848095
H 1.7524885731 -1.9662841535 -0.4704855021
H 2.9373353422 0.2075434396 -0.6975416458
H -2.6839015954 -0.7673575877 0.7686317002
H -2.6963631647 0.9687525725 0.8453243614
14
Frame from Quantum Espresso Output
N -2.1836101315 0.1103194885 0.6714573322
C -0.8492736918 0.1356588943 0.3144697058
C -0.1516201302 1.3561763635 0.1786535573
C -0.1339089214 -1.0580547259 0.0732816486
C 1.1998783215 1.3765546779 -0.1831709158
C 1.2175361015 -1.0270927893 -0.2879701638
C 1.8893717742 0.1876431952 -0.4172189192
H -0.6732731179 2.2985979528 0.3576498239
H -0.6416788607 -2.0199955044 0.1691331143
H 1.7187429375 2.3338250576 -0.2822713050
H 1.7502108365 -1.9643964556 -0.4698011518
H 2.9393727402 0.2075826891 -0.6980860451
H -2.6795543099 -0.7599132092 0.7677811728
H -2.6919125814 0.9614775367 0.8438147990
14
Frame from Quantum Espresso Output
N -2.1792624000 0.1104002127 0.6702742287
C -0.8443057867 0.1357505686 0.3130794721
C -0.1515537548 1.3566533805 0.1786600898
C -0.1338535166 -1.0585295739 0.0732800539
C 1.1955364375 1.3778193509 -0.1819643434
C 1.2132245760 -1.0285208559 -0.2868512293
C 1.8923244539 0.1877033624 -0.4179657533
H -0.6738588122 2.2985967983 0.3578094973
H -0.6422564747 -2.0200112350 0.1692933562
H 1.7168887313 2.3326513606 -0.2818336928
H 1.7483494285 -1.9632995229 -0.4692601857
H 2.9412755657 0.2076200618 -0.6985900497
H -2.6799228133 -0.7615161279 0.7678134613
H -2.6923046680 0.9630653911 0.8439777481
14
Frame from Quantum Espresso Output
N -2.1766244145 0.1104516672 0.6695375194
C -0.8429033477 0.1357812988 0.3126523029
C -0.1513175833 1.3580432398 0.1786524388
C -0.1335900677 -1.0599102345 0.0731858575
C 1.1947235709 1.3761049399 -0.1818354112
C 1.2124032627 -1.0268336513 -0.2865351300
C 1.8901513126 0.1876607625 -0.4173358566
H -0.6750510953 2.2986477406 0.3581354564
H -0.6434435872 -2.0201102030 0.1696178619
H 1.7145290181 2.3321760899 -0.2812345110
H 1.7459945528 -1.9629174195 -0.4686150334
H 2.9444790227 0.2076828988 -0.6994382139
H -2.6783479543 -0.7609246876 0.7674177586
H -2.6907217232 0.9625307295 0.8435176139
14
Frame from Quantum Espresso Output
N -2.1748826547 0.1104846574 0.6690196792
C -0.8426028820 0.1357908034 0.3125282816
C -0.1511594166 1.3585253474 0.1786143618
C -0.1334009723 -1.0603849532 0.0731494867
C 1.1944255225 1.3754738559 -0.1817990720
C 1.2121168763 -1.0262154593 -0.2863955327
C 1.8912579856 0.1876804344 -0.4175727659
H -0.6769285006 2.2991306409 0.3586639310
H -0.6453086940 -2.0206699652 0.1701115101
H 1.7114530089 2.3316158702 -0.2804537164
H 1.7429247830 -1.9624719710 -0.4677730278
H 2.9453079524 0.2077018330 -0.6996443566
H -2.6752838298 -0.7593120695 0.7666664670
H -2.6876382121 0.9610341466 0.8426074072
14
Frame from Quantum Espresso Output
N -2.1723398696 0.1105346107 0.6682601622
C -0.8415120087 0.1358094000 0.3122159049
C -0.1515327193 1.3585525791 0.1786789227
C -0.1337507224 -1.0604286928 0.0732644768
C 1.1945560572 1.3748177415 -0.1818662352
C 1.2122627424 -1.0255577069 -0.2863538696
C 1.8922463522 0.1876999815 -0.4177824234
H -0.6787866378 2.2990876817 0.3591642467
H -0.6471551417 -2.0206983963 0.1706311292
H 1.7083293563 2.3319946435 -0.2796287256
H 1.7398270362 -1.9629645917 -0.4669560172
H 2.9452821958 0.2077060667 -0.6996112153
H -2.6723912586 -0.7595404757 0.7658855483
H -2.6847544152 0.9613703299 0.8418207488
14
Frame from Quantum Espresso Output
N -2.1718715795 0.1105435429 0.6680391727
C -0.8401014007 0.1358310248 0.3118414236
C -0.1514119018 1.3585363503 0.1786015877
C -0.1336079296 -1.0604098756 0.0732390535
C 1.1944110302 1.3750124485 -0.1818126167
C 1.2121393853 -1.0257562215 -0.2862730465
C 1.8924718037 0.1877040614 -0.4178017555
H -0.6800961602 2.2982821631 0.3594800216
H -0.6484608618 -2.0199445748 0.1710422278
H 1.7059073577 2.3331766611 -0.2789615796
H 1.7374477269 -1.9642340695 -0.4663555143
H 2.9449622902 0.2077058123 -0.6994914416
H -2.6695623173 -0.7604723663 0.7650942907
H -2.6819464763 0.9624082146 0.8410808298
14
Frame from Quantum Espresso Output
N -2.1706257217 0.1105700729 0.6675651716
C -0.8399933222 0.1358267528 0.3118241045
C -0.1513641032 1.3583365803 0.1785340824
C -0.1335379101 -1.0602111433 0.0732451918
C 1.1944914603 1.3759700641 -0.1817836364
C 1.2122575263 -1.0267126762 -0.2862805074
C 1.8920926067 0.1877008002 -0.4176575507
H -0.6811935344 2.2967748893 0.3596997419
H -0.6495567479 -2.0184842704 0.1714364978
H 1.7037486632 2.3352552219 -0.2783369582
H 1.7353537759 -1.9663846912 -0.4658529255
H 2.9443328896 0.2077016135 -0.6992715798
H -2.6666532270 -0.7622383635 0.7642523454
H -2.6790713888 0.9642783209 0.8403486760
14
Frame from Quantum Espresso Output
N -2.1709623443 0.1105625699 0.6675960002
C -0.8398517461 0.1358293410 0.3117835546
C -0.1513469398 1.3579771353 0.1785180391
C -0.1335221682 -1.0598548011 0.0732691746
C 1.1942746166 1.3761000551 -0.1817200456
C 1.2120483463 -1.0268468407 -0.2862193324
C 1.8915605174 0.1876920716 -0.4175074553
H -0.6811942132 2.2962894895 0.3596644185
H -0.6495524757 -2.0180025607 0.1714685727
H 1.7040273634 2.3363549009 -0.2783787340
H 1.7356636794 -1.9674703037 -0.4659597277
H 2.9440795082 0.2076998585 -0.6991803442
H -2.6662581163 -0.7625726556 0.7641415950
H -2.6786850610 0.9646249113 0.8402469377
14
Frame from Quantum Espresso Output
N -2.1709623443 0.1105625699 0.6675960002
C -0.8398517461 0.1358293410 0.3117835546
C -0.1513469398 1.3579771353 0.1785180391
C -0.1335221682 -1.0598548011 0.0732691746
C 1.1942746166 1.3761000551 -0.1817200456
C 1.2120483463 -1.0268468407 -0.2862193324
C 1.8915605174 0.1876920716 -0.4175074553
H -0.6811942132 2.2962894895 0.3596644185
H -0.6495524757 -2.0180025607 0.1714685727
H 1.7040273634 2.3363549009 -0.2783787340
H 1.7356636794 -1.9674703037 -0.4659597277
H 2.9440795082 0.2076998585 -0.6991803442
H -2.6662581163 -0.7625726556 0.7641415950
H -2.6786850610 0.9646249113 0.8402469377
