63
Final Frame from Quantum Espresso Output
Zn 1.2182900000 1.3071800000 0.7547010000
Zn 1.2182900000 6.5359000004 0.7547010000
Zn 0.4966983555 0.0066893652 3.6586579904
Zn 0.4890911650 5.2491357601 3.6304299805
Zn 1.1847804759 -1.2960436177 6.0873050908
Zn 1.1402307330 3.9409554222 5.9655683951
Zn 1.2182900000 3.9215400000 0.7547010000
Zn 1.2182900000 9.1502600000 0.7547010000
Zn 0.5037965842 2.6155964296 3.5991555005
Zn 0.4934404376 7.8618761220 3.6465703035
Zn 1.1710786112 1.3239228471 6.0512674541
Zn 1.1849407909 6.5479662700 6.0822183539
Zn 6.0914510000 1.3071800000 0.7547010000
Zn 6.0914510000 6.5359000004 0.7547010000
Zn 5.3470466674 0.0104855567 3.6847576952
Zn 5.3762548452 5.2388548536 3.6262875225
Zn 6.0530389163 -1.2925988552 6.0835634411
Zn 6.0530875541 3.9347543662 6.0558790695
Zn 6.0914510000 3.9215400000 0.7547010000
Zn 6.0914510000 9.1502600000 0.7547010000
Zn 5.3592545356 2.6202750850 3.6462902065
Zn 5.3631609564 7.8561139920 3.6359061279
Zn 6.0393889043 1.3274390401 6.1244726169
Zn 6.0607259439 6.5530540479 6.0670569488
Zn 3.6548710000 0.0000000001 1.5094010000
Zn 3.6548710000 5.2287200000 1.5094010000
Zn 2.8503793504 -1.2902697897 3.6928709774
Zn 2.8632783007 3.9143729969 3.7098914160
Zn 3.6284777206 -2.5881725616 5.9990117666
Zn 3.6120447276 2.6359872606 6.2050179871
Zn 3.6548710000 2.6143600000 1.5094010000
Zn 3.6548710000 7.8430800001 1.5094010000
Zn 2.8648441455 1.3160797385 3.7047951418
Zn 2.8272528466 6.5543486878 3.6572003496
Zn 3.6137362928 0.0230300313 6.0309294271
Zn 3.6345974088 5.2737342775 5.8808822054
Zn 8.5280310000 0.0000000001 1.5094010000
Zn 8.5280310000 5.2287200000 1.5094010000
Zn 7.7064237887 -1.2921295617 3.6933101837
Zn 7.7231645010 3.9225085369 3.6906773465
Zn 8.5020865115 -2.6036105098 6.0068581421
Zn 8.4856966301 2.6187949446 6.0078872559
Zn 8.5280310000 2.6143600000 1.5094010000
Zn 8.5280310000 7.8430800001 1.5094010000
Zn 7.7043277368 1.3123102190 3.6859372252
Zn 7.7128303377 6.5453111014 3.6793822579
Zn 8.4931604566 0.0141448026 6.0075440217
Zn 8.4836563573 5.2447507113 5.9978718937
C 5.2756075392 -0.0090150446 12.7599217881
C 4.7991489187 0.7741293658 11.6673415737
C 5.5636239369 1.8494013989 11.1751923074
C 3.5476537795 0.4925300848 11.0868981321
C 5.0703864561 2.6449703479 10.1508609281
C 3.0555052697 1.2883992277 10.0624457545
C 3.7998261227 2.3904599336 9.6091624339
N 5.6632471368 -0.6409427994 13.6612397998
N 3.2996466051 3.2027249780 8.5825709165
H 2.2828673692 3.2352588693 8.5136316575
H 3.6839000036 4.1467265458 8.5560699015
H 2.9621947833 -0.3471430851 11.4599967775
H 6.5337837201 2.0668173198 11.6217605548
H 2.0836680644 1.0707022393 9.6145000348
H 5.6585067680 3.4857908050 9.7780617913
