63
Final Frame from Quantum Espresso Output
Zn 1.2182900000 1.3071800000 0.7547010000
Zn 1.2182900000 6.5359000001 0.7547010000
Zn 1.9038553936 -0.0010287284 3.6327007024
Zn 1.9054312918 5.2333488173 3.6284979253
Zn 1.2002465697 -1.3027050012 6.0890399207
Zn 1.2033775191 3.9245034559 6.0745491428
Zn 1.2182900000 3.9215400000 0.7547010000
Zn 1.2182900000 9.1502600000 0.7547010000
Zn 1.9096904866 2.6169512249 3.6442809377
Zn 1.9128543648 7.8463578142 3.6475386719
Zn 1.1983611623 1.3106874712 6.0745992533
Zn 1.2063825442 6.5382178334 6.0868208351
Zn 6.0914510000 1.3071800000 0.7547010000
Zn 6.0914510000 6.5359000001 0.7547010000
Zn 6.7808554712 -0.0048566917 3.6221410851
Zn 6.7876170520 5.2321139547 3.6177976504
Zn 6.0653228449 -1.3129436358 6.1369856148
Zn 6.0779890753 3.9176956973 6.0579203053
Zn 6.0914510000 3.9215400000 0.7547010000
Zn 6.0914510000 9.1502600000 0.7547010000
Zn 6.7875608853 2.6147656933 3.6333086892
Zn 6.7880754259 7.8484707555 3.6377317423
Zn 6.0692793203 1.3016818664 6.0369594050
Zn 6.0753613138 6.5330519919 6.0515027524
Zn 3.6548710000 -0.0000000000 1.5094010000
Zn 3.6548710000 5.2287200000 1.5094010000
Zn 4.4358356022 -1.3079087997 3.6860971694
Zn 4.4359751692 3.9239738521 3.6761793947
Zn 3.6398979030 -2.6105402947 6.0056837146
Zn 3.6364708938 2.6224413400 5.9953391789
Zn 3.6548710000 2.6143600000 1.5094010000
Zn 3.6548710000 7.8430800001 1.5094010000
Zn 4.4249692712 1.3088119109 3.6861903831
Zn 4.4312192524 6.5411483174 3.6858544648
Zn 3.6198280118 0.0016818789 5.9685467096
Zn 3.6314202885 5.2349370843 5.9630681740
Zn 8.5280310000 -0.0000000000 1.5094010000
Zn 8.5280310000 5.2287200000 1.5094010000
Zn 9.2986411789 -1.3069890116 3.7029519224
Zn 9.3043024732 3.9232235057 3.6936961316
Zn 8.4996303830 -2.6138743696 6.0178663443
Zn 8.5030209662 2.6127749737 5.9974655437
Zn 8.5280310000 2.6143600000 1.5094010000
Zn 8.5280310000 7.8430800001 1.5094010000
Zn 9.2974515594 1.3043041724 3.7005235291
Zn 9.3028011726 6.5388063340 3.7037468508
Zn 8.4853844429 -0.0011110277 6.0125840581
Zn 8.4996613145 5.2273289665 6.0120399504
C 5.3781717666 -0.1752022767 9.4094481776
C 5.1304599457 1.2253696331 9.4187030190
C 6.1875881881 2.1586975922 9.4809131066
C 3.8091659247 1.7097989272 9.2999115650
C 5.9340944926 3.5222853117 9.4328474060
C 3.5536810398 3.0709470581 9.2519711835
C 4.6100968772 4.0124917322 9.3285246783
N 5.5625219086 -1.3298942624 9.3580138820
N 4.3489810759 5.3507182345 9.2982688797
H 3.4320417924 5.6724445066 9.0094860420
H 5.0978729641 6.0287404533 9.2003206224
H 2.9840267200 1.0013811779 9.2217176329
H 7.2162719959 1.8025417770 9.5463352692
H 2.5265961183 3.4244890625 9.1410612071
H 6.7642787836 4.2299383992 9.4654755237
