15
Frame from Quantum Espresso Output
N -2.2711188945 0.2437420576 0.4896649762
C -0.7976159202 0.2231765000 0.2187551740
C -0.1636123644 1.4204551032 0.0599497520
C -0.1882492512 -0.9910021649 0.1127732418
C 1.2006246711 1.3955354835 -0.2503266251
C 1.1762046965 -1.0076699468 -0.1971905813
C 1.8667206670 0.1834241167 -0.3796361290
H -0.6677114425 2.3860688449 0.1571614151
H -0.7116572906 -1.9412033980 0.2524536239
H 1.7446981093 2.3373959714 -0.3935317291
H 1.7008296464 -1.9658882237 -0.2983424776
H 2.9342283011 0.1672488405 -0.6234474131
H -2.7492670960 -0.6179261696 0.3024344803
H -2.7378140695 1.0885218638 0.2173019647
H -2.3615477902 0.3089350654 1.5997810112
15
Frame from Quantum Espresso Output
N -2.2585555496 0.2471708011 0.5412999664
C -0.8075689441 0.2233456915 0.2120544767
C -0.1547841782 1.4342830575 0.0572890987
C -0.1794794345 -1.0057462727 0.1106122711
C 1.2011439786 1.4013523316 -0.2495122036
C 1.1767743792 -1.0134949118 -0.1961152861
C 1.8705590589 0.1833473258 -0.3805382800
H -0.6692441451 2.3855489762 0.1569103135
H -0.7131559771 -1.9406016027 0.2521484524
H 1.7425945279 2.3357511391 -0.3929361697
H 1.6987651601 -1.9641739016 -0.2978217289
H 2.9325565302 0.1672620892 -0.6233286409
H -2.7573443481 -0.6266955880 0.2896398906
H -2.7460557113 1.0961275287 0.2027588644
H -2.3614933747 0.3073372800 1.5853396596
15
Frame from Quantum Espresso Output
N -2.2683769335 0.2491000580 0.5785397861
C -0.8104834822 0.2232506368 0.2068924992
C -0.1545773792 1.4338885203 0.0551799401
C -0.1795025784 -1.0052128693 0.1084421859
C 1.2103997495 1.4040747222 -0.2508886473
C 1.1860205525 -1.0166866938 -0.1973785990
C 1.8673283491 0.1835496812 -0.3793799400
H -0.6729760126 2.3901557952 0.1570746759
H -0.7170799640 -1.9454039911 0.2525051287
H 1.7422321242 2.3369180009 -0.3925549897
H 1.6984803507 -1.9653854756 -0.2974032414
H 2.9327107169 0.1672451337 -0.6236835404
H -2.7544584515 -0.6154748254 0.2800005460
H -2.7441830536 1.0849548205 0.1926620655
H -2.3608220155 0.3058404304 1.5777928148
15
Frame from Quantum Espresso Output
N -2.2658888868 0.2495309157 0.5755082686
C -0.8158437740 0.2236516808 0.2075857839
C -0.1520237516 1.4379663654 0.0530508556
C -0.1770766439 -1.0097331688 0.1064962595
C 1.2072670789 1.4044837682 -0.2502294542
C 1.1828353395 -1.0168137251 -0.1966948251
C 1.8726159308 0.1833405126 -0.3802067986
H -0.6738757502 2.3903996914 0.1569887396
H -0.7179841431 -1.9456563589 0.2524035012
H 1.7437768894 2.3395546906 -0.3926943014
H 1.7000457415 -1.9681554018 -0.2974356361
H 2.9311739625 0.1672741559 -0.6234313335
H -2.7538281069 -0.6099724213 0.2760506232
H -2.7437530186 1.0789401413 0.1886741694
H -2.3627288954 0.3060030980 1.5917348322
15
Frame from Quantum Espresso Output
N -2.2607443730 0.2501062420 0.5785496208
C -0.8148428932 0.2236241898 0.2072854550
C -0.1554735435 1.4380380957 0.0515671105
C -0.1807207548 -1.0094972564 0.1050780935
C 1.2089495031 1.4052446603 -0.2510256835
C 1.1843103185 -1.0178609903 -0.1974130701
C 1.8714848849 0.1834376641 -0.3793389368
H -0.6748533529 2.3914092283 0.1566754262
H -0.7190556428 -1.9467959305 0.2521064368
H 1.7452205071 2.3420751534 -0.3925989719
H 1.7014596447 -1.9706700576 -0.2972254203
H 2.9330926784 0.1672376375 -0.6239001417
H -2.7539287579 -0.6041262321 0.2700569558
H -2.7443249033 1.0726311516 0.1823782655
H -2.3658613431 0.3059603885 1.6056055445
15
Frame from Quantum Espresso Output
N -2.2606946044 0.2506385324 0.5872555113
C -0.8132388457 0.2239572511 0.2076317059
C -0.1550742566 1.4374053505 0.0490005728
C -0.1805950116 -1.0090806246 0.1026264757
C 1.2073323508 1.4069247658 -0.2515436573
C 1.1825431637 -1.0193556969 -0.1978216206
C 1.8725189783 0.1832465866 -0.3789504829
H -0.6765065517 2.3929012183 0.1562937476
H -0.7207883314 -1.9482598518 0.2517392049
H 1.7467844246 2.3444085418 -0.3924187849
H 1.7029806310 -1.9730602343 -0.2969328860
H 2.9339183076 0.1672172629 -0.6239289587
H -2.7522045867 -0.5962546413 0.2644574713
H -2.7432533032 1.0645167974 0.1766085856
H -2.3690103926 0.3056086864 1.6137837996
15
Frame from Quantum Espresso Output
N -2.2608700300 0.2509141725 0.5892644754
C -0.8133053417 0.2239134182 0.2095392031
C -0.1556904012 1.4389348651 0.0484139719
C -0.1813049776 -1.0102764085 0.1022129554
C 1.2084753045 1.4069104093 -0.2526884736
C 1.1834953269 -1.0195937868 -0.1988905305
C 1.8714707798 0.1833529242 -0.3786593597
H -0.6765456836 2.3920136886 0.1558616540
H -0.7209099729 -1.9473981973 0.2512629636
H 1.7467350849 2.3442713362 -0.3921675224
H 1.7028324278 -1.9728296522 -0.2966628819
H 2.9340615264 0.1671872253 -0.6235998286
H -2.7509216500 -0.5943579671 0.2638256112
H -2.7420782731 1.0623212731 0.1761532348
H -2.3707321481 0.3054506435 1.6139352116
15
Frame from Quantum Espresso Output
N -2.2599327113 0.2507804003 0.5895961576
C -0.8123930662 0.2241279625 0.2116567444
C -0.1555932859 1.4382150671 0.0482004579
C -0.1812762007 -1.0096034018 0.1021090237
C 1.2084361686 1.4069169625 -0.2536911617
C 1.1833940337 -1.0195219562 -0.1998143428
C 1.8711192112 0.1832777903 -0.3787903931
H -0.6768134667 2.3917625134 0.1554307639
H -0.7212432523 -1.9470135345 0.2508141671
H 1.7466809310 2.3438116036 -0.3920247132
H 1.7026534753 -1.9723348441 -0.2965064014
H 2.9336757861 0.1671585690 -0.6229863730
H -2.7500381098 -0.5945887935 0.2641379945
H -2.7413017380 1.0624348696 0.1765464976
H -2.3726558029 0.3053907358 1.6131222627
15
Frame from Quantum Espresso Output
N -2.2590383191 0.2507304864 0.5902031324
C -0.8113500738 0.2241568232 0.2139682697
C -0.1553905137 1.4380612212 0.0479921108
C -0.1811384800 -1.0091677571 0.1020446620
C 1.2081422784 1.4066481032 -0.2547846375
C 1.1829552809 -1.0193312627 -0.2007741235
C 1.8708340080 0.1833131966 -0.3791066686
H -0.6771343904 2.3913506580 0.1548307928
H -0.7217061954 -1.9465109345 0.2502106916
H 1.7467987519 2.3435917213 -0.3919775474
H 1.7025897808 -1.9720560068 -0.2964168571
H 2.9333883016 0.1671069518 -0.6222249262
H -2.7488110098 -0.5947507202 0.2641577878
H -2.7402279823 1.0623565609 0.1766669293
H -2.3751994648 0.3053149028 1.6130110680
15
Frame from Quantum Espresso Output
N -2.2581041753 0.2505919415 0.5911177944
C -0.8102027328 0.2245733568 0.2170049667
C -0.1550855517 1.4378368461 0.0478813008
C -0.1809513551 -1.0090708666 0.1021494204
C 1.2077767990 1.4068212936 -0.2562384141
C 1.1825369293 -1.0192582957 -0.2020187640
C 1.8706007459 0.1831482738 -0.3797662365
H -0.6776687683 2.3909174517 0.1539122218
H -0.7224008544 -1.9457732670 0.2492919375
H 1.7469553234 2.3432364904 -0.3920682388
H 1.7024809263 -1.9717074829 -0.2964315658
H 2.9331281340 0.1670261496 -0.6211114696
H -2.7468443095 -0.5949817559 0.2639827296
H -2.7385215301 1.0622435367 0.1765963229
H -2.3789876085 0.3052102721 1.6134986791
15
Frame from Quantum Espresso Output
N -2.2571791139 0.2506113051 0.5925347561
C -0.8089016353 0.2243968207 0.2210348666
C -0.1545875724 1.4382036057 0.0480876038
C -0.1805431793 -1.0084405944 0.1026300693
C 1.2074010361 1.4064850951 -0.2581036099
C 1.1818321473 -1.0193043744 -0.2034738953
C 1.8701635982 0.1833967565 -0.3809425243
H -0.6784490047 2.3903780266 0.1524886470
H -0.7236078238 -1.9450261137 0.2479508665
H 1.7473444793 2.3430693807 -0.3925852012
H 1.7023977846 -1.9714428143 -0.2967714586
H 2.9330819219 0.1668626458 -0.6195053390
H -2.7437662126 -0.5957593739 0.2635559406
H -2.7358540579 1.0623416301 0.1763569875
H -2.3846203954 0.3050419485 1.6145429752
15
Frame from Quantum Espresso Output
N -2.2571249787 0.2504105504 0.5934836016
C -0.8084367101 0.2250797612 0.2229548515
C -0.1544653125 1.4381123606 0.0486432496
C -0.1805127512 -1.0088490305 0.1033398475
C 1.2071948806 1.4067363353 -0.2588481695
C 1.1817316405 -1.0189603627 -0.2040026421
C 1.8700792729 0.1830485627 -0.3817845410
H -0.6789389091 2.3903729222 0.1516094643
H -0.7242498306 -1.9445304367 0.2471399588
H 1.7475970580 2.3430476836 -0.3933288038
H 1.7023970648 -1.9715928071 -0.2973544687
H 2.9332912622 0.1667611308 -0.6186315975
H -2.7417411639 -0.5964048432 0.2631680117
H -2.7341632361 1.0626551226 0.1759964769
H -2.3879463145 0.3049269948 1.6154154449
15
Frame from Quantum Espresso Output
N -2.2575472065 0.2504403021 0.5938618200
C -0.8086688705 0.2250402473 0.2234554430
C -0.1544516613 1.4383880691 0.0493130101
C -0.1805319634 -1.0087612297 0.1040409414
C 1.2073233426 1.4070226273 -0.2587872352
C 1.1818189108 -1.0193791490 -0.2037760873
C 1.8702621904 0.1831456123 -0.3822166307
H -0.6790972494 2.3906070473 0.1511984147
H -0.7245905964 -1.9445890500 0.2468443023
H 1.7476600525 2.3430763827 -0.3942026184
H 1.7022839262 -1.9716567131 -0.2980647107
H 2.9336251733 0.1666779698 -0.6183919792
H -2.7406910840 -0.5969544617 0.2628405805
H -2.7333270062 1.0629181801 0.1757033531
H -2.3893559858 0.3048381096 1.6159820808
15
Frame from Quantum Espresso Output
N -2.2582323320 0.2504481337 0.5940913801
C -0.8092254932 0.2250190253 0.2235004993
C -0.1544119523 1.4387718433 0.0503420982
C -0.1804712385 -1.0087234530 0.1050319190
C 1.2075436313 1.4069223103 -0.2581207687
C 1.1819790312 -1.0193191274 -0.2029714813
C 1.8701878448 0.1831971286 -0.3822393930
H -0.6791099663 2.3911615012 0.1509320286
H -0.7248279553 -1.9448902309 0.2467750326
H 1.7476870724 2.3433430502 -0.3957245898
H 1.7021605453 -1.9720690266 -0.2993097067
H 2.9342817464 0.1665809021 -0.6185626886
H -2.7398396271 -0.5976439220 0.2624230187
H -2.7327828550 1.0633124470 0.1753004902
H -2.3902264795 0.3047033624 1.6163328458
15
Frame from Quantum Espresso Output
N -2.2583538135 0.2504353259 0.5940305665
C -0.8092216933 0.2250698178 0.2236438722
C -0.1544844667 1.4388852167 0.0507626273
C -0.1806023769 -1.0087016549 0.1054319849
C 1.2076438137 1.4069926283 -0.2577146678
C 1.1820770813 -1.0194306809 -0.2025472325
C 1.8705145632 0.1832130122 -0.3819113149
H -0.6789617999 2.3913983638 0.1509354137
H -0.7247599582 -1.9449622863 0.2468794404
H 1.7475378000 2.3433152509 -0.3965391298
H 1.7019557907 -1.9721029201 -0.2999577783
H 2.9342378953 0.1665460447 -0.6188052215
H -2.7397111835 -0.5977388304 0.2622342934
H -2.7328218774 1.0632782753 0.1751379070
H -2.3903378026 0.3046163810 1.6162199237
15
Frame from Quantum Espresso Output
N -2.2583503064 0.2504127077 0.5939849905
C -0.8091374676 0.2251604494 0.2241053584
C -0.1544264110 1.4389698596 0.0511563923
C -0.1805868904 -1.0086481449 0.1058108792
C 1.2077295273 1.4070433914 -0.2573953118
C 1.1821219786 -1.0194701492 -0.2021981797
C 1.8706443042 0.1831979232 -0.3814700773
H -0.6788276789 2.3916192034 0.1509089215
H -0.7247325009 -1.9449878507 0.2469657744
H 1.7473525565 2.3432400985 -0.3974283648
H 1.7017026390 -1.9721093580 -0.3006543546
H 2.9342126041 0.1665050307 -0.6190463987
H -2.7394935556 -0.5977900008 0.2620034943
H -2.7328098875 1.0631599529 0.1749526337
H -2.3906869392 0.3045108308 1.6161049270
15
Frame from Quantum Espresso Output
N -2.2582593123 0.2503602452 0.5939753863
C -0.8088690397 0.2253129706 0.2250334544
C -0.1542760279 1.4390959743 0.0517245075
C -0.1805214534 -1.0085539237 0.1063752168
C 1.2078157635 1.4070216327 -0.2570292538
C 1.1821470498 -1.0194439445 -0.2017857259
C 1.8707846826 0.1831844160 -0.3808093920
H -0.6786284054 2.3918799853 0.1508456017
H -0.7247106466 -1.9449398573 0.2470728587
H 1.7470879427 2.3431327546 -0.3987653525
H 1.7013100681 -1.9721136918 -0.3016854097
H 2.9340925736 0.1664383177 -0.6193581770
H -2.7390957606 -0.5978483212 0.2616226442
H -2.7327496359 1.0629437516 0.1746526528
H -2.3914158263 0.3043436346 1.6159316730
15
Frame from Quantum Espresso Output
N -2.2580899005 0.2502958463 0.5939697558
C -0.8084072505 0.2255434709 0.2266027251
C -0.1539808193 1.4392679452 0.0525858232
C -0.1803136296 -1.0083765960 0.1072310228
C 1.2079542186 1.4070140008 -0.2565845012
C 1.1821451493 -1.0193590817 -0.2012552240
C 1.8709008378 0.1831320340 -0.3798400828
H -0.6783085035 2.3922035509 0.1507684093
H -0.7246884981 -1.9447944906 0.2472561454
H 1.7466818155 2.3429460670 -0.4007667612
H 1.7007062437 -1.9721187510 -0.3032109074
H 2.9338722592 0.1663371466 -0.6198150979
H -2.7384740677 -0.5979222089 0.2609939548
H -2.7326533949 1.0625598769 0.1741707635
H -2.3926324880 0.3040851335 1.6156946589
15
Frame from Quantum Espresso Output
N -2.2580899005 0.2502958463 0.5939697558
C -0.8084072505 0.2255434709 0.2266027251
C -0.1539808193 1.4392679452 0.0525858232
C -0.1803136296 -1.0083765960 0.1072310228
C 1.2079542186 1.4070140008 -0.2565845012
C 1.1821451493 -1.0193590817 -0.2012552240
C 1.8709008378 0.1831320340 -0.3798400828
H -0.6783085035 2.3922035509 0.1507684093
H -0.7246884981 -1.9447944906 0.2472561454
H 1.7466818155 2.3429460670 -0.4007667612
H 1.7007062437 -1.9721187510 -0.3032109074
H 2.9338722592 0.1663371466 -0.6198150979
H -2.7384740677 -0.5979222089 0.2609939548
H -2.7326533949 1.0625598769 0.1741707635
H -2.3926324880 0.3040851335 1.6156946589
