32
Zn2
Zn   -1.073556    1.084142    1.197764
Zn   -5.367778    0.039500    3.251072
Zn   -9.699793   -1.014284    5.651354
Zn  -13.707234   -1.989245    7.759904
Zn   -1.691520    3.624417    1.197764
Zn   -5.985742    2.579775    3.251072
Zn  -10.317757    1.525991    5.651352
Zn  -14.325198    0.551030    7.759903
Zn    4.456596    1.084142    1.197764
Zn    0.162374    0.039500    3.251072
Zn   -4.169398   -1.014237    5.651755
Zn   -8.176560   -1.989131    7.758386
Zn    3.838631    3.624417    1.197764
Zn   -0.455591    2.579775    3.251072
Zn   -4.787363    1.526038    5.651755
Zn   -8.794525    0.551144    7.758385
Zn    1.691520    0.411491    0.855545
Zn   -2.602702   -0.633151    2.908854
Zn   -6.977137   -1.697254    5.101539
Zn  -11.137261   -2.709274    7.368153
Zn    1.073556    2.951766    0.855545
Zn   -3.220666    1.907124    2.908854
Zn   -7.595102    0.843021    5.101538
Zn  -11.755226   -0.168999    7.368153
Zn    7.221672    0.411491    0.855545
Zn    2.927450   -0.633151    2.908854
Zn   -1.447619   -1.697400    5.103595
Zn   -5.607390   -2.709346    7.364709
Zn    6.603707    2.951766    0.855545
Zn    2.309485    1.907124    2.908854
Zn   -2.065582    0.842875    5.103594
Zn   -6.225354   -0.169070    7.364708
