63
Frame from Quantum Espresso Output
Zn -1.0735560000 1.0841420000 1.1977640000
Zn -2.3094850000 6.1646920000 1.1977640000
Zn -4.2124255763 0.3197034601 4.3604432550
Zn -5.4617496638 5.3997867874 4.3696963511
Zn -8.1539243117 -0.6524379555 5.8209513948
Zn -9.3370393226 4.4452629825 5.9950666009
Zn -1.6915200000 3.6244170000 1.1977640000
Zn -2.9274500000 8.7049670000 1.1977640000
Zn -4.8376669873 2.8620753049 4.3724584498
Zn -6.0733449355 7.9385622052 4.3588950833
Zn -8.7917460829 1.8797126149 5.7943166116
Zn -10.0297203750 6.9681373051 5.8101562419
Zn 4.4565960000 1.0841420000 1.1977640000
Zn 3.2206660000 6.1646920000 1.1977640000
Zn 0.4432054037 0.1118463224 3.4621278466
Zn -0.7926192165 5.1918926631 3.4388092638
Zn -2.0675095161 -0.4926228854 5.6813218994
Zn -3.3048649833 4.5824700360 5.6831758224
Zn 3.8386310000 3.6244170000 1.1977640000
Zn 2.6027020000 8.7049670000 1.1977640000
Zn -0.1688380633 2.6436579198 3.4454281396
Zn -1.4108341281 7.7305084046 3.4565427144
Zn -2.6878662970 2.0428896600 5.6855484770
Zn -3.9216197703 7.1227133531 5.6795085781
Zn 1.6915200000 0.4114910000 0.8555450000
Zn 0.4555910000 5.4920410000 0.8555450000
Zn -2.2250424579 -0.5376889555 2.8799330506
Zn -3.4739958149 4.5378736211 2.8729886544
Zn -6.0396156884 -1.4718805615 4.4105053715
Zn -7.2942606056 3.6113195113 4.4770052063
Zn 1.0735560000 2.9517660000 0.8555450000
Zn -0.1623740000 8.0323160000 0.8555450000
Zn -2.8521418536 2.0019208635 2.8734801367
Zn -4.0814132092 7.0809877242 2.8802338860
Zn -6.6550512519 1.0662261853 4.4044249854
Zn -7.9100444115 6.1423560969 4.4782060543
Zn 7.2216720000 0.4114910000 0.8555450000
Zn 5.9857420000 5.4920410000 0.8555450000
Zn 3.0269665540 -0.6105495691 2.9110064398
Zn 1.8015573365 4.4747051308 2.9339561874
Zn 0.4204014735 -1.2309021899 5.7931211736
Zn -0.8001787344 3.8533885077 5.7282761655
Zn 6.6037070000 2.9517660000 0.8555450000
Zn 5.3677780000 8.0323160000 0.8555450000
Zn 2.4157868246 1.9387264377 2.9216145101
Zn 1.1802345946 7.0081636270 2.9217371858
Zn -0.2020596604 1.3175304133 5.8248398227
Zn -1.4362332699 6.3789101272 5.8085377279
C -6.0127519265 5.4869408436 12.6473019723
C -6.9384411340 5.1926326740 11.6035570958
C -7.7871470406 6.1960221031 11.0968422735
C -7.0259680287 3.8898264878 11.0750903217
C -8.7010720879 5.9024490622 10.0944974152
C -7.9396347646 3.5975582131 10.0720971210
C -8.7956014820 4.5978636814 9.5759109211
N -5.2557299237 5.7265450570 13.5035455780
N -9.6949292727 4.3101404948 8.5457298949
H -9.9794320825 3.3356829704 8.4592026986
H -10.4955580169 4.9346788354 8.4661044029
H -6.3764745976 3.1078162611 11.4681337805
H -7.7295206879 7.2044730404 11.5071700653
H -8.0050728163 2.5834462449 9.6721981197
H -9.3620270823 6.6840081406 9.7136456985
63
Frame from Quantum Espresso Output
Zn -1.0735560000 1.0841420000 1.1977640000
Zn -2.3094850000 6.1646920000 1.1977640000
Zn -4.2134823439 0.3196172089 4.3603759189
Zn -5.4617676609 5.3996271106 4.3692987757
Zn -8.1540380012 -0.6523017161 5.8201639779
Zn -9.3376743391 4.4448014663 5.9941189753
Zn -1.6915200000 3.6244170000 1.1977640000
Zn -2.9274500000 8.7049670000 1.1977640000
Zn -4.8390555128 2.8620062746 4.3719923690
Zn -6.0735278974 7.9380425616 4.3591143142
Zn -8.7909108243 1.8797036864 5.7942286348
Zn -10.0288920166 6.9686124310 5.8097794468
Zn 4.4565960000 1.0841420000 1.1977640000
Zn 3.2206660000 6.1646920000 1.1977640000
Zn 0.4430761635 0.1116306287 3.4618787068
Zn -0.7928340420 5.1922974119 3.4386828055
Zn -2.0670475437 -0.4933839754 5.6815122287
Zn -3.3044639247 4.5819180237 5.6830510400
Zn 3.8386310000 3.6244170000 1.1977640000
Zn 2.6027020000 8.7049670000 1.1977640000
Zn -0.1691691631 2.6435756162 3.4451913715
Zn -1.4109744473 7.7302105767 3.4567367078
Zn -2.6875528363 2.0437264318 5.6852923466
Zn -3.9215034865 7.1234645275 5.6798084823
Zn 1.6915200000 0.4114910000 0.8555450000
Zn 0.4555910000 5.4920410000 0.8555450000
Zn -2.2251412741 -0.5378855261 2.8797548462
Zn -3.4744405142 4.5382531202 2.8732545065
Zn -6.0404655930 -1.4718466525 4.4107111199
Zn -7.2946104942 3.6100082128 4.4768304097
Zn 1.0735560000 2.9517660000 0.8555450000
Zn -0.1623740000 8.0323160000 0.8555450000
Zn -2.8522805483 2.0014811921 2.8736973609
Zn -4.0818179326 7.0808598182 2.8803216753
Zn -6.6561273492 1.0666477553 4.4050488053
Zn -7.9105965178 6.1423861951 4.4777158293
Zn 7.2216720000 0.4114910000 0.8555450000
Zn 5.9857420000 5.4920410000 0.8555450000
Zn 3.0264276639 -0.6103787053 2.9116066610
Zn 1.8010835347 4.4745170656 2.9339604523
Zn 0.4202866721 -1.2311449096 5.7938067681
Zn -0.8001292455 3.8531258216 5.7281484903
Zn 6.6037070000 2.9517660000 0.8555450000
Zn 5.3677780000 8.0323160000 0.8555450000
Zn 2.4157122882 1.9382517894 2.9214089853
Zn 1.1802022932 7.0082345365 2.9220645750
Zn -0.2011408632 1.3180170309 5.8246738891
Zn -1.4356151990 6.3792091916 5.8087838733
C -6.0122189729 5.4870869430 12.6468969712
C -6.9390438941 5.1923949952 11.6036328015
C -7.7872405143 6.1954487258 11.0961881540
C -7.0259525910 3.8900021981 11.0746678874
C -8.7009529787 5.9018843766 10.0940924068
C -7.9397186222 3.5982005155 10.0717349375
C -8.7962696009 4.5977583637 9.5761306353
N -5.2558842759 5.7265544586 13.5025662774
N -9.6948876628 4.3103997803 8.5455871187
H -9.9797280415 3.3361808134 8.4595445181
H -10.4957523691 4.9341941073 8.4665053176
H -6.3764499560 3.1080588982 11.4676385537
H -7.7294316714 7.2037541440 11.5064222280
H -8.0048001925 2.5844075756 9.6719693585
H -9.3613522328 6.6835593156 9.7131182080
63
Frame from Quantum Espresso Output
Zn -1.0735560000 1.0841420000 1.1977640000
Zn -2.3094850000 6.1646920000 1.1977640000
Zn -4.2155930558 0.3195171982 4.3602281830
Zn -5.4615747464 5.3992631101 4.3683274608
Zn -8.1545153479 -0.6520549966 5.8184336318
Zn -9.3393815795 4.4436980649 5.9918122413
Zn -1.6915200000 3.6244170000 1.1977640000
Zn -2.9274500000 8.7049670000 1.1977640000
Zn -4.8418689656 2.8620101186 4.3707817863
Zn -6.0737365181 7.9368382548 4.3596287367
Zn -8.7891416459 1.8797424107 5.7941962437
Zn -10.0271193966 6.9695539909 5.8089841599
Zn 4.4565960000 1.0841420000 1.1977640000
Zn 3.2206660000 6.1646920000 1.1977640000
Zn 0.4424073540 0.1110640614 3.4613410837
Zn -0.7936888576 5.1930964218 3.4384223708
Zn -2.0659604136 -0.4949599694 5.6818615538
Zn -3.3034295325 4.5807941203 5.6825763043
Zn 3.8386310000 3.6244170000 1.1977640000
Zn 2.6027020000 8.7049670000 1.1977640000
Zn -0.1703212887 2.6434658709 3.4446243788
Zn -1.4116508167 7.7292761828 3.4572325411
Zn -2.6867194438 2.0456478750 5.6844970924
Zn -3.9211040982 7.1249582525 5.6804276780
Zn 1.6915200000 0.4114910000 0.8555450000
Zn 0.4555910000 5.4920410000 0.8555450000
Zn -2.2253340357 -0.5383463915 2.8794048452
Zn -3.4753046571 4.5391038849 2.8738993619
Zn -6.0422068190 -1.4717780002 4.4112222809
Zn -7.2953761072 3.6072874415 4.4763614846
Zn 1.0735560000 2.9517660000 0.8555450000
Zn -0.1623740000 8.0323160000 0.8555450000
Zn -2.8525420033 2.0006805040 2.8742654837
Zn -4.0826448995 7.0804564694 2.8805333583
Zn -6.6584349844 1.0676530485 4.4065800384
Zn -7.9116801898 6.1422529179 4.4764964165
Zn 7.2216720000 0.4114910000 0.8555450000
Zn 5.9857420000 5.4920410000 0.8555450000
Zn 3.0249666846 -0.6101032642 2.9129855138
Zn 1.7997885559 4.4740289145 2.9340107780
Zn 0.4198805769 -1.2317762802 5.7954559082
Zn -0.8002047572 3.8525951843 5.7277536454
Zn 6.6037070000 2.9517660000 0.8555450000
Zn 5.3677780000 8.0323160000 0.8555450000
Zn 2.4153023795 1.9372968490 2.9208355909
Zn 1.1799401150 7.0082052333 2.9227765222
Zn -0.1991994736 1.3191539789 5.8242282745
Zn -1.4343404755 6.3797099208 5.8093145321
C -6.0126873663 5.4869687921 12.6442408898
C -6.9398394681 5.1917674026 11.6038915716
C -7.7872409328 6.1944674811 11.0951682731
C -7.0261301793 3.8904132036 11.0736398621
C -8.7011173404 5.9013469834 10.0931132052
C -7.9396136938 3.5993363292 10.0712563640
C -8.7975885934 4.5972862175 9.5762114846
N -5.2547584792 5.7270398572 13.5016929719
N -9.6947017347 4.3105453038 8.5451275833
H -9.9804489807 3.3371361711 8.4603119380
H -10.4967185746 4.9335373099 8.4674272092
H -6.3762956828 3.1085302245 11.4663729645
H -7.7292333886 7.2021500201 11.5045331587
H -8.0041652686 2.5863179549 9.6711508231
H -9.3597780894 6.6825835106 9.7117387694
63
Frame from Quantum Espresso Output
Zn -1.0735560000 1.0841420000 1.1977640000
Zn -2.3094850000 6.1646920000 1.1977640000
Zn -4.2154400217 0.3195183558 4.3602081396
Zn -5.4615476460 5.3992619597 4.3683296831
Zn -8.1546235554 -0.6520227655 5.8184502873
Zn -9.3394320673 4.4436378364 5.9918186739
Zn -1.6915200000 3.6244170000 1.1977640000
Zn -2.9274500000 8.7049670000 1.1977640000
Zn -4.8416700611 2.8619090086 4.3706634487
Zn -6.0737025814 7.9370178066 4.3596372358
Zn -8.7891258035 1.8796039875 5.7943795447
Zn -10.0271093718 6.9696650069 5.8091169118
Zn 4.4565960000 1.0841420000 1.1977640000
Zn 3.2206660000 6.1646920000 1.1977640000
Zn 0.4421619779 0.1109348937 3.4612792708
Zn -0.7939795568 5.1930684297 3.4383286807
Zn -2.0660492795 -0.4947448078 5.6817552964
Zn -3.3035010270 4.5808845700 5.6825302741
Zn 3.8386310000 3.6244170000 1.1977640000
Zn 2.6027020000 8.7049670000 1.1977640000
Zn -0.1706058756 2.6432538569 3.4444842812
Zn -1.4119112827 7.7293697720 3.4571709049
Zn -2.6867621873 2.0453844789 5.6843357604
Zn -3.9210938066 7.1248592840 5.6804420800
Zn 1.6915200000 0.4114910000 0.8555450000
Zn 0.4555910000 5.4920410000 0.8555450000
Zn -2.2253796225 -0.5383283522 2.8793615778
Zn -3.4752709397 4.5389905672 2.8737689068
Zn -6.0420421065 -1.4716059726 4.4112972210
Zn -7.2953114417 3.6074315407 4.4764055029
Zn 1.0735560000 2.9517660000 0.8555450000
Zn -0.1623740000 8.0323160000 0.8555450000
Zn -2.8526026324 2.0006081903 2.8742145754
Zn -4.0826224982 7.0805938840 2.8803916502
Zn -6.6583050279 1.0674920253 4.4067199079
Zn -7.9114649609 6.1422027753 4.4765164325
Zn 7.2216720000 0.4114910000 0.8555450000
Zn 5.9857420000 5.4920410000 0.8555450000
Zn 3.0247975231 -0.6101375176 2.9130256193
Zn 1.7996871446 4.4739132829 2.9340340984
Zn 0.4199046307 -1.2316732049 5.7955564887
Zn -0.8003010460 3.8525691518 5.7277940667
Zn 6.6037070000 2.9517660000 0.8555450000
Zn 5.3677780000 8.0323160000 0.8555450000
Zn 2.4151673703 1.9371506829 2.9207403855
Zn 1.1798134693 7.0083515497 2.9227223395
Zn -0.1992339696 1.3189840567 5.8241947283
Zn -1.4343821759 6.3797530271 5.8094107118
C -6.0121027374 5.4871824439 12.6451150753
C -6.9396677523 5.1918262050 11.6036014020
C -7.7873164585 6.1944997339 11.0952952602
C -7.0260341199 3.8902166291 11.0738626798
C -8.7010884971 5.9014986182 10.0933481179
C -7.9396551791 3.5989373581 10.0712919992
C -8.7972220469 4.5974298300 9.5760475218
N -5.2551654314 5.7269186234 13.5009383187
N -9.6950466351 4.3105543944 8.5449584477
H -9.9805592653 3.3367022455 8.4602933020
H -10.4968859674 4.9337098005 8.4674765991
H -6.3762660668 3.1085072894 11.4662144980
H -7.7291997840 7.2024582958 11.5045138833
H -8.0041284573 2.5859895255 9.6708923501
H -9.3600047373 6.6829502600 9.7114513842
63
Frame from Quantum Espresso Output
Zn -1.0735560000 1.0841420000 1.1977640000
Zn -2.3094850000 6.1646920000 1.1977640000
Zn -4.2155884837 0.3194789036 4.3602036838
Zn -5.4615774413 5.3991784422 4.3681766231
Zn -8.1549563357 -0.6520061566 5.8181638996
Zn -9.3399101477 4.4433934996 5.9912379138
Zn -1.6915200000 3.6244170000 1.1977640000
Zn -2.9274500000 8.7049670000 1.1977640000
Zn -4.8418635331 2.8618627474 4.3702563874
Zn -6.0737702770 7.9369580442 4.3597626624
Zn -8.7888812164 1.8795267060 5.7946246860
Zn -10.0268133281 6.9698300335 5.8090915338
Zn 4.4565960000 1.0841420000 1.1977640000
Zn 3.2206660000 6.1646920000 1.1977640000
Zn 0.4416992085 0.1106903956 3.4611938338
Zn -0.7944352861 5.1931190816 3.4382653017
Zn -2.0659676966 -0.4946198467 5.6816715214
Zn -3.3033610028 4.5809424269 5.6823243140
Zn 3.8386310000 3.6244170000 1.1977640000
Zn 2.6027020000 8.7049670000 1.1977640000
Zn -0.1711388738 2.6431129220 3.4442571320
Zn -1.4123638065 7.7292176016 3.4572716792
Zn -2.6865934308 2.0453510313 5.6839340276
Zn -3.9209504027 7.1248006635 5.6805559481
Zn 1.6915200000 0.4114910000 0.8555450000
Zn 0.4555910000 5.4920410000 0.8555450000
Zn -2.2255309939 -0.5384468657 2.8793638948
Zn -3.4753446630 4.5389768840 2.8738076390
Zn -6.0421059687 -1.4714823976 4.4114136458
Zn -7.2955155847 3.6073799724 4.4762393415
Zn 1.0735560000 2.9517660000 0.8555450000
Zn -0.1623740000 8.0323160000 0.8555450000
Zn -2.8527398180 2.0005001170 2.8743484910
Zn -4.0827706623 7.0806248558 2.8803413909
Zn -6.6585737441 1.0674420304 4.4071424858
Zn -7.9113945852 6.1419390340 4.4761689848
Zn 7.2216720000 0.4114910000 0.8555450000
Zn 5.9857420000 5.4920410000 0.8555450000
Zn 3.0242996652 -0.6102128193 2.9132823869
Zn 1.7993016655 4.4736913676 2.9340978720
Zn 0.4198806286 -1.2316695736 5.7960167711
Zn -0.8004135145 3.8525514525 5.7276926840
Zn 6.6037070000 2.9517660000 0.8555450000
Zn 5.3677780000 8.0323160000 0.8555450000
Zn 2.4148319742 1.9369672060 2.9204617559
Zn 1.1796006848 7.0083817296 2.9227411495
Zn -0.1989409111 1.3190244076 5.8240339728
Zn -1.4341617912 6.3797697056 5.8096040782
C -6.0119979084 5.4872454081 12.6451066505
C -6.9395029704 5.1918471843 11.6032846042
C -7.7874133144 6.1944593252 11.0952653021
C -7.0260244690 3.8900674513 11.0738627572
C -8.7011319203 5.9014342644 10.0933011823
C -7.9397994950 3.5987324381 10.0711359830
C -8.7969833695 4.5975653203 9.5757628927
N -5.2549148027 5.7270418428 13.5003378660
N -9.6954997324 4.3105661176 8.5447430424
H -9.9808487335 3.3363544022 8.4603699409
H -10.4972214329 4.9337586464 8.4676955421
H -6.3760544149 3.1084050664 11.4658068502
H -7.7290838290 7.2027199630 11.5041809827
H -8.0039512960 2.5857186017 9.6703014495
H -9.3600312057 6.6833285304 9.7107862251
63
Frame from Quantum Espresso Output
Zn -1.0735560000 1.0841420000 1.1977640000
Zn -2.3094850000 6.1646920000 1.1977640000
Zn -4.2158520801 0.3194223178 4.3601922393
Zn -5.4616357035 5.3990776959 4.3679896065
Zn -8.1552818690 -0.6519846396 5.8178162150
Zn -9.3404225241 4.4431254208 5.9905879045
Zn -1.6915200000 3.6244170000 1.1977640000
Zn -2.9274500000 8.7049670000 1.1977640000
Zn -4.8421926329 2.8618030418 4.3698044580
Zn -6.0738843387 7.9368507548 4.3599043691
Zn -8.7885509289 1.8794498013 5.7948666813
Zn -10.0264379118 6.9700385868 5.8090328882
Zn 4.4565960000 1.0841420000 1.1977640000
Zn 3.2206660000 6.1646920000 1.1977640000
Zn 0.4412407765 0.1104221784 3.4611105092
Zn -0.7948996470 5.1932100947 3.4382070274
Zn -2.0658677246 -0.4945582350 5.6816022818
Zn -3.3032154701 4.5809633768 5.6821039338
Zn 3.8386310000 3.6244170000 1.1977640000
Zn 2.6027020000 8.7049670000 1.1977640000
Zn -0.1716856102 2.6429673254 3.4440255465
Zn -1.4128163495 7.7290480917 3.4574068554
Zn -2.6864229480 2.0453717684 5.6835095162
Zn -3.9208135363 7.1247875811 5.6806905024
Zn 1.6915200000 0.4114910000 0.8555450000
Zn 0.4555910000 5.4920410000 0.8555450000
Zn -2.2257306297 -0.5385950797 2.8793583915
Zn -3.4754850979 4.5389869938 2.8738643588
Zn -6.0422331235 -1.4713641757 4.4115390940
Zn -7.2957413177 3.6072316910 4.4760468652
Zn 1.0735560000 2.9517660000 0.8555450000
Zn -0.1623740000 8.0323160000 0.8555450000
Zn -2.8529285062 2.0003553399 2.8744945992
Zn -4.0829821337 7.0806321178 2.8803029425
Zn -6.6589197984 1.0674192312 4.4076083956
Zn -7.9113666101 6.1416869502 4.4757700574
Zn 7.2216720000 0.4114910000 0.8555450000
Zn 5.9857420000 5.4920410000 0.8555450000
Zn 3.0237899493 -0.6102758965 2.9136001945
Zn 1.7989076267 4.4734690244 2.9341750390
Zn 0.4198605681 -1.2316864121 5.7965432388
Zn -0.8005228670 3.8525201664 5.7275886113
Zn 6.6037070000 2.9517660000 0.8555450000
Zn 5.3677780000 8.0323160000 0.8555450000
Zn 2.4145274109 1.9367520443 2.9201868396
Zn 1.1794131368 7.0084279279 2.9227978084
Zn -0.1985665565 1.3190967924 5.8238691077
Zn -1.4338796502 6.3798187487 5.8098266542
C -6.0119069176 5.4872991155 12.6449419578
C -6.9394151772 5.1918229553 11.6030041913
C -7.7874915985 6.1944403726 11.0951702308
C -7.0260727306 3.8899403461 11.0737159876
C -8.7012578555 5.9015198054 10.0931321038
C -7.9398736250 3.5985628393 10.0709566891
C -8.7969525778 4.5975599678 9.5753933297
N -5.2546061393 5.7271902211 13.4997310938
N -9.6958077626 4.3104825176 8.5445978199
H -9.9811485688 3.3361727354 8.4604731169
H -10.4976252368 4.9337876745 8.4679359597
H -6.3758329178 3.1083118943 11.4653632062
H -7.7289649343 7.2028684650 11.5037659717
H -8.0037591325 2.5855890349 9.6697085352
H -9.3598962157 6.6835371772 9.7101401718
63
Frame from Quantum Espresso Output
Zn -1.0735560000 1.0841420000 1.1977640000
Zn -2.3094850000 6.1646920000 1.1977640000
Zn -4.2161706681 0.3193642711 4.3601910796
Zn -5.4616854584 5.3989268860 4.3677284621
Zn -8.1558199357 -0.6519733555 5.8173410122
Zn -9.3412295476 4.4427264561 5.9896431385
Zn -1.6915200000 3.6244170000 1.1977640000
Zn -2.9274500000 8.7049670000 1.1977640000
Zn -4.8425950721 2.8617415168 4.3691442845
Zn -6.0740132928 7.9366997971 4.3601225283
Zn -8.7881468310 1.8793491626 5.7952394923
Zn -10.0259575974 6.9702894408 5.8089606386
Zn 4.4565960000 1.0841420000 1.1977640000
Zn 3.2206660000 6.1646920000 1.1977640000
Zn 0.4405344294 0.1100454916 3.4609980400
Zn -0.7956009286 5.1933014173 3.4381173119
Zn -2.0656863244 -0.4944172115 5.6814941434
Zn -3.3029666423 4.5810262372 5.6817605481
Zn 3.8386310000 3.6244170000 1.1977640000
Zn 2.6027020000 8.7049670000 1.1977640000
Zn -0.1725089425 2.6427724074 3.4436800900
Zn -1.4135111288 7.7287768625 3.4576023377
Zn -2.6861261461 2.0454000579 5.6828708838
Zn -3.9205677888 7.1247246015 5.6808767306
Zn 1.6915200000 0.4114910000 0.8555450000
Zn 0.4555910000 5.4920410000 0.8555450000
Zn -2.2259752245 -0.5387898175 2.8793464182
Zn -3.4756089799 4.5389961351 2.8739220220
Zn -6.0424170414 -1.4712202483 4.4117201315
Zn -7.2961028055 3.6070618376 4.4757509676
Zn 1.0735560000 2.9517660000 0.8555450000
Zn -0.1623740000 8.0323160000 0.8555450000
Zn -2.8531405721 2.0002017978 2.8746834405
Zn -4.0832273081 7.0806303163 2.8802324593
Zn -6.6594264134 1.0673857163 4.4082864638
Zn -7.9113419408 6.1412861083 4.4751763832
Zn 7.2216720000 0.4114910000 0.8555450000
Zn 5.9857420000 5.4920410000 0.8555450000
Zn 3.0229795973 -0.6103932124 2.9140460084
Zn 1.7982542644 4.4731233960 2.9342817104
Zn 0.4198296167 -1.2317055069 5.7973075160
Zn -0.8006936856 3.8524847139 5.7274103554
Zn 6.6037070000 2.9517660000 0.8555450000
Zn 5.3677780000 8.0323160000 0.8555450000
Zn 2.4140044395 1.9364646821 2.9197873647
Zn 1.1790681560 7.0084423416 2.9228588265
Zn -0.1980406082 1.3192115558 5.8236120302
Zn -1.4334701734 6.3798575625 5.8101403211
C -6.0118157394 5.4873521788 12.6446106205
C -6.9393326746 5.1917849358 11.6026145334
C -7.7876224750 6.1944370174 11.0949688299
C -7.0261230526 3.8897533679 11.0734760749
C -8.7014004043 5.9015756568 10.0928439196
C -7.9399999668 3.5983324896 10.0706292276
C -8.7969270892 4.5975673402 9.5749292141
N -5.2540888717 5.7274320638 13.4989161079
N -9.6963053975 4.3103884971 8.5444202126
H -9.9815903573 3.3359406762 8.4606226378
H -10.4981479195 4.9337642521 8.4682903242
H -6.3755176372 3.1081798916 11.4647201371
H -7.7287845362 7.2030916041 11.5031844511
H -8.0034808394 2.5854166160 9.6688643240
H -9.3596880037 6.6838318100 9.7092256452
63
Frame from Quantum Espresso Output
Zn -1.0735560000 1.0841420000 1.1977640000
Zn -2.3094850000 6.1646920000 1.1977640000
Zn -4.2165174006 0.3192632501 4.3601916898
Zn -5.4617684102 5.3987302510 4.3673674279
Zn -8.1566556734 -0.6520095188 5.8166801630
Zn -9.3424546944 4.4421739715 5.9882198949
Zn -1.6915200000 3.6244170000 1.1977640000
Zn -2.9274500000 8.7049670000 1.1977640000
Zn -4.8430430220 2.8616411326 4.3681342458
Zn -6.0741903163 7.9365353472 4.3604462121
Zn -8.7876016420 1.8792189714 5.7958623237
Zn -10.0252569872 6.9706072702 5.8088771687
Zn 4.4565960000 1.0841420000 1.1977640000
Zn 3.2206660000 6.1646920000 1.1977640000
Zn 0.4393394420 0.1094549777 3.4608441020
Zn -0.7967168272 5.1933783918 3.4379901499
Zn -2.0654944769 -0.4940972047 5.6812405290
Zn -3.3026635407 4.5811930072 5.6811876064
Zn 3.8386310000 3.6244170000 1.1977640000
Zn 2.6027020000 8.7049670000 1.1977640000
Zn -0.1738369717 2.6424500768 3.4431415222
Zn -1.4146579442 7.7283787826 3.4578956267
Zn -2.6857185848 2.0453110389 5.6818266146
Zn -3.9202384343 7.1245158795 5.6810964530
Zn 1.6915200000 0.4114910000 0.8555450000
Zn 0.4555910000 5.4920410000 0.8555450000
Zn -2.2264069699 -0.5390840414 2.8793746610
Zn -3.4757617439 4.5389522244 2.8739991385
Zn -6.0425421060 -1.4710344610 4.4119485583
Zn -7.2966122619 3.6069932147 4.4752570180
Zn 1.0735560000 2.9517660000 0.8555450000
Zn -0.1623740000 8.0323160000 0.8555450000
Zn -2.8534745899 1.9999789293 2.8749578107
Zn -4.0836183154 7.0806589938 2.8801442335
Zn -6.6600407852 1.0672734020 4.4092720237
Zn -7.9112125275 6.1406784305 4.4742367928
Zn 7.2216720000 0.4114910000 0.8555450000
Zn 5.9857420000 5.4920410000 0.8555450000
Zn 3.0217615442 -0.6106293199 2.9146779039
Zn 1.7972462471 4.4726174114 2.9344515824
Zn 0.4197319779 -1.2317202927 5.7984559725
Zn -0.8010251052 3.8524487890 5.7271187400
Zn 6.6037070000 2.9517660000 0.8555450000
Zn 5.3677780000 8.0323160000 0.8555450000
Zn 2.4131739052 1.9360747247 2.9191773480
Zn 1.1785441963 7.0084464857 2.9229104085
Zn -0.1973699205 1.3193303368 5.8231982705
Zn -1.4328934194 6.3798691738 5.8106225550
C -6.0116651236 5.4874227346 12.6440507942
C -6.9392590809 5.1917224957 11.6019980568
C -7.7877844054 6.1945070772 11.0946089915
C -7.0262329625 3.8894826590 11.0729894089
C -8.7016104884 5.9017038196 10.0923007326
C -7.9401481368 3.5980013714 10.0700766559
C -8.7969493999 4.5975142284 9.5742099157
N -5.2532506533 5.7278231809 13.4976788218
N -9.6970137368 4.3101838772 8.5442504877
H -9.9822757780 3.3356265067 8.4608120956
H -10.4989508542 4.9337218784 8.4687963689
H -6.3750285326 3.1079525899 11.4637330468
H -7.7285026535 7.2034708734 11.5023216719
H -8.0030762307 2.5851039276 9.6675570720
H -9.3593488217 6.6842512719 9.7078704495
63
Frame from Quantum Espresso Output
Zn -1.0735560000 1.0841420000 1.1977640000
Zn -2.3094850000 6.1646920000 1.1977640000
Zn -4.2172064560 0.3191220877 4.3601941148
Zn -5.4618863634 5.3984114411 4.3668003711
Zn -8.1578469165 -0.6520745332 5.8156617620
Zn -9.3442857463 4.4413460463 5.9860789974
Zn -1.6915200000 3.6244170000 1.1977640000
Zn -2.9274500000 8.7049670000 1.1977640000
Zn -4.8439133269 2.8614943905 4.3666375610
Zn -6.0744751914 7.9362003159 4.3609569870
Zn -8.7867115103 1.8790422075 5.7967393424
Zn -10.0241673060 6.9711110410 5.8087076049
Zn 4.4565960000 1.0841420000 1.1977640000
Zn 3.2206660000 6.1646920000 1.1977640000
Zn 0.4376465414 0.1085833365 3.4606234115
Zn -0.7983317027 5.1935495309 3.4377959807
Zn -2.0651398776 -0.4937896039 5.6809209648
Zn -3.3022063839 4.5813379010 5.6803418135
Zn 3.8386310000 3.6244170000 1.1977640000
Zn 2.6027020000 8.7049670000 1.1977640000
Zn -0.1757535937 2.6419877918 3.4423579857
Zn -1.4163012687 7.7277678099 3.4583652783
Zn -2.6851210570 2.0453378801 5.6803186293
Zn -3.9197582768 7.1243263158 5.6814377006
Zn 1.6915200000 0.4114910000 0.8555450000
Zn 0.4555910000 5.4920410000 0.8555450000
Zn -2.2270500402 -0.5395306492 2.8793526673
Zn -3.4760468511 4.5389575585 2.8740887405
Zn -6.0428919045 -1.4708151069 4.4122962167
Zn -7.2973797232 3.6066680662 4.4745059597
Zn 1.0735560000 2.9517660000 0.8555450000
Zn -0.1623740000 8.0323160000 0.8555450000
Zn -2.8539872644 1.9996308916 2.8752945361
Zn -4.0842248369 7.0806295048 2.8800103821
Zn -6.6610859358 1.0671919216 4.4107358206
Zn -7.9111650354 6.1398582355 4.4728205316
Zn 7.2216720000 0.4114910000 0.8555450000
Zn 5.9857420000 5.4920410000 0.8555450000
Zn 3.0199669316 -0.6109416928 2.9156940754
Zn 1.7957266609 4.4718894321 2.9347169016
Zn 0.4195926993 -1.2317944464 5.8002025635
Zn -0.8015012509 3.8523598273 5.7266939703
Zn 6.6037070000 2.9517660000 0.8555450000
Zn 5.3677780000 8.0323160000 0.8555450000
Zn 2.4120293808 1.9354538316 2.9183647658
Zn 1.1777802615 7.0084495457 2.9230664664
Zn -0.1962691951 1.3195760346 5.8226093184
Zn -1.4319504567 6.3799532698 5.8113580320
C -6.0114081658 5.4875134463 12.6429868787
C -6.9393475164 5.1915649135 11.6012091464
C -7.7879871401 6.1944936486 11.0938580515
C -7.0263195324 3.8891812532 11.0721603783
C -8.7017949437 5.9017566263 10.0913937930
C -7.9403237932 3.5976685966 10.0691357817
C -8.7971852002 4.5973966883 9.5733735580
N -5.2520814959 5.7283851964 13.4957778656
N -9.6980119210 4.3099615743 8.5440216052
H -9.9833010189 3.3353396866 8.4611190572
H -10.5000612984 4.9335000162 8.4695488891
H -6.3744307382 3.1077651631 11.4622124330
H -7.7281017575 7.2037734632 11.5009519687
H -8.0024852046 2.5849756874 9.6657394567
H -9.3587004526 6.6846573875 9.7059304561
63
Frame from Quantum Espresso Output
Zn -1.0735560000 1.0841420000 1.1977640000
Zn -2.3094850000 6.1646920000 1.1977640000
Zn -4.2179593235 0.3189079260 4.3602395040
Zn -5.4620758631 5.3979718072 4.3660397393
Zn -8.1597510667 -0.6522958643 5.8142995030
Zn -9.3470984183 4.4401874437 5.9828938386
Zn -1.6915200000 3.6244170000 1.1977640000
Zn -2.9274500000 8.7049670000 1.1977640000
Zn -4.8448635742 2.8612651631 4.3643715662
Zn -6.0748558813 7.9358287417 4.3617473573
Zn -8.7856012127 1.8788037778 5.7981938729
Zn -10.0226814522 6.9717037542 5.8085240864
Zn 4.4565960000 1.0841420000 1.1977640000
Zn 3.2206660000 6.1646920000 1.1977640000
Zn 0.4348576170 0.1072548389 3.4603892946
Zn -0.8008738536 5.1936490904 3.4375277231
Zn -2.0647109536 -0.4930667616 5.6802821933
Zn -3.3016402761 4.5817393510 5.6789564428
Zn 3.8386310000 3.6244170000 1.1977640000
Zn 2.6027020000 8.7049670000 1.1977640000
Zn -0.1787800640 2.6412382291 3.4411723463
Zn -1.4189704531 7.7268807110 3.4590961083
Zn -2.6842625233 2.0451058557 5.6778988485
Zn -3.9190587129 7.1237737668 5.6818367766
Zn 1.6915200000 0.4114910000 0.8555450000
Zn 0.4555910000 5.4920410000 0.8555450000
Zn -2.2281094056 -0.5401826908 2.8793864656
Zn -3.4763295954 4.5388404712 2.8741260632
Zn -6.0431643717 -1.4705779931 4.4127156342
Zn -7.2985119876 3.6065682342 4.4732471425
Zn 1.0735560000 2.9517660000 0.8555450000
Zn -0.1623740000 8.0323160000 0.8555450000
Zn -2.8547428040 1.9991970847 2.8756953189
Zn -4.0851127403 7.0806185455 2.8798054013
Zn -6.6623958402 1.0669220741 4.4128440418
Zn -7.9109625692 6.1386024753 4.4705742957
Zn 7.2216720000 0.4114910000 0.8555450000
Zn 5.9857420000 5.4920410000 0.8555450000
Zn 3.0172192993 -0.6115480714 2.9171506906
Zn 1.7933093293 4.4708008306 2.9351453824
Zn 0.4193121215 -1.2318525512 5.8028338315
Zn -0.8023767555 3.8522566125 5.7260012510
Zn 6.6037070000 2.9517660000 0.8555450000
Zn 5.3677780000 8.0323160000 0.8555450000
Zn 2.4101687996 1.9346165570 2.9172143573
Zn 1.1765316772 7.0083810611 2.9232027974
Zn -0.1948482121 1.3198275056 5.8216716600
Zn -1.4305969128 6.3799867129 5.8124905066
C -6.0110174749 5.4876230731 12.6412390711
C -6.9395175056 5.1913480540 11.5999165661
C -7.7881856223 6.1945850050 11.0926063809
C -7.0264844055 3.8887648156 11.0706788547
C -8.7019838400 5.9019105387 10.0898758381
C -7.9404898596 3.5971923713 10.0676158449
C -8.7975860793 4.5971262681 9.5720599537
N -5.2502512962 5.7292704140 13.4927887178
N -9.6995367743 4.3095254231 8.5438560351
H -9.9849062701 3.3348703632 8.4614784842
H -10.5017704761 4.9331734800 8.4705964298
H -6.3735334566 3.1074544692 11.4598469056
H -7.7274789900 7.2043335924 11.4989047840
H -8.0016485637 2.5846205013 9.6629022320
H -9.3577447559 6.6852703540 9.7030227251
63
Frame from Quantum Espresso Output
Zn -1.0735560000 1.0841420000 1.1977640000
Zn -2.3094850000 6.1646920000 1.1977640000
Zn -4.2187830146 0.3186914897 4.3602931216
Zn -5.4623245660 5.3975485678 4.3653551374
Zn -8.1614692308 -0.6526318424 5.8130779744
Zn -9.3497539466 4.4391933277 5.9798998092
Zn -1.6915200000 3.6244170000 1.1977640000
Zn -2.9274500000 8.7049670000 1.1977640000
Zn -4.8458598172 2.8610159369 4.3622552935
Zn -6.0752766381 7.9354396097 4.3625364020
Zn -8.7846021699 1.8786558019 5.7995333774
Zn -10.0213160929 6.9721589278 5.8082971832
Zn 4.4565960000 1.0841420000 1.1977640000
Zn 3.2206660000 6.1646920000 1.1977640000
Zn 0.4322563072 0.1060356638 3.4602379436
Zn -0.8031838127 5.1937208161 3.4372752835
Zn -2.0643168284 -0.4924947871 5.6796344326
Zn -3.3012262886 4.5820700009 5.6775890041
Zn 3.8386310000 3.6244170000 1.1977640000
Zn 2.6027020000 8.7049670000 1.1977640000
Zn -0.1815579416 2.6405301425 3.4400778810
Zn -1.4214433444 7.7260700791 3.4598292608
Zn -2.6835455709 2.0449356885 5.6755929834
Zn -3.9184771781 7.1232595430 5.6821267300
Zn 1.6915200000 0.4114910000 0.8555450000
Zn 0.4555910000 5.4920410000 0.8555450000
Zn -2.2292019315 -0.5407794061 2.8793343665
Zn -3.4765884193 4.5387410901 2.8740127043
Zn -6.0435161185 -1.4705471159 4.4129934755
Zn -7.2995853355 3.6064003202 4.4719211008
Zn 1.0735560000 2.9517660000 0.8555450000
Zn -0.1623740000 8.0323160000 0.8555450000
Zn -2.8554747500 1.9988049729 2.8758184166
Zn -4.0859845266 7.0805263413 2.8795900865
Zn -6.6636366110 1.0666744785 4.4146765322
Zn -7.9109522671 6.1375863022 4.4683390700
Zn 7.2216720000 0.4114910000 0.8555450000
Zn 5.9857420000 5.4920410000 0.8555450000
Zn 3.0146888371 -0.6121607468 2.9185860982
Zn 1.7909202406 4.4698500861 2.9356145730
Zn 0.4190239935 -1.2319532444 5.8053351576
Zn -0.8032517957 3.8521308932 5.7253247716
Zn 6.6037070000 2.9517660000 0.8555450000
Zn 5.3677780000 8.0323160000 0.8555450000
Zn 2.4084971600 1.9338350829 2.9164073464
Zn 1.1753278518 7.0082691688 2.9234036280
Zn -0.1935238347 1.3201023350 5.8207961339
Zn -1.4292078410 6.3800601709 5.8135954980
C -6.0105941592 5.4876959489 12.6391740190
C -6.9399172072 5.1910383482 11.5987447756
C -7.7882071511 6.1946169352 11.0910828696
C -7.0264785458 3.8885714345 11.0690530665
C -8.7019639341 5.9018780447 10.0881748393
C -7.9405703526 3.5969002730 10.0658856585
C -8.7982092218 4.5968453538 9.5711301843
N -5.2486348815 5.7300829039 13.4897440595
N -9.7009822219 4.3091233606 8.5438186865
H -9.9864596858 3.3346304414 8.4617647853
H -10.5032978635 4.9326764684 8.4714943974
H -6.3729076858 3.1073923364 11.4574717394
H -7.7269107873 7.2045072096 11.4968332107
H -8.0009280012 2.5847102348 9.6603777827
H -9.3566707311 6.6855209862 9.7004162561
63
Frame from Quantum Espresso Output
Zn -1.0735560000 1.0841420000 1.1977640000
Zn -2.3094850000 6.1646920000 1.1977640000
Zn -4.2193698737 0.3184378126 4.3604481591
Zn -5.4626476619 5.3971024880 4.3647225973
Zn -8.1636386444 -0.6533210293 5.8120256125
Zn -9.3529657170 4.4382285293 5.9764906969
Zn -1.6915200000 3.6244170000 1.1977640000
Zn -2.9274500000 8.7049670000 1.1977640000
Zn -4.8465185520 2.8607009826 4.3597539218
Zn -6.0756725037 7.9351645701 4.3635540325
Zn -8.7838379580 1.8785597074 5.8013556934
Zn -10.0200062288 6.9723543487 5.8081738816
Zn 4.4565960000 1.0841420000 1.1977640000
Zn 3.2206660000 6.1646920000 1.1977640000
Zn 0.4288051061 0.1045734137 3.4603245969
Zn -0.8060921902 5.1935419778 3.4370285755
Zn -2.0639948431 -0.4915142457 5.6785992224
Zn -3.3010383294 4.5827228108 5.6757522296
Zn 3.8386310000 3.6244170000 1.1977640000
Zn 2.6027020000 8.7049670000 1.1977640000
Zn -0.1850222965 2.6395746966 3.4388243877
Zn -1.4247031843 7.7251881471 3.4608030131
Zn -2.6828473838 2.0443415902 5.6726404671
Zn -3.9178628997 7.1222455878 5.6822151251
Zn 1.6915200000 0.4114910000 0.8555450000
Zn 0.4555910000 5.4920410000 0.8555450000
Zn -2.2307167676 -0.5414621927 2.8793015921
Zn -3.4766914953 4.5384522863 2.8735720112
Zn -6.0435963585 -1.4707702651 4.4130613926
Zn -7.3007758730 3.6067547510 4.4700272755
Zn 1.0735560000 2.9517660000 0.8555450000
Zn -0.1623740000 8.0323160000 0.8555450000
Zn -2.8563687866 1.9985058471 2.8755571817
Zn -4.0870010316 7.0803831194 2.8792941833
Zn -6.6646745342 1.0661480195 4.4165549699
Zn -7.9108243096 6.1364801636 4.4654176846
Zn 7.2216720000 0.4114910000 0.8555450000
Zn 5.9857420000 5.4920410000 0.8555450000
Zn 3.0116556878 -0.6131103297 2.9202121252
Zn 1.7878057362 4.4687696718 2.9362453130
Zn 0.4185053909 -1.2320280803 5.8083448004
Zn -0.8046439156 3.8519794566 5.7244813937
Zn 6.6037070000 2.9517660000 0.8555450000
Zn 5.3677780000 8.0323160000 0.8555450000
Zn 2.4063754177 1.9330568610 2.9158184997
Zn 1.1736795324 7.0079890581 2.9235125686
Zn -0.1923830678 1.3202331522 5.8197408933
Zn -1.4276547178 6.3800440055 5.8150162829
C -6.0100330758 5.4877318409 12.6362896973
C -6.9404376880 5.1907819122 11.5970905172
C -7.7880523018 6.1946321081 11.0887659974
C -7.0265388202 3.8883952859 11.0664927508
C -8.7015708491 5.9019529449 10.0859735240
C -7.9403992155 3.5968023496 10.0636764427
C -8.7990844012 4.5962732560 9.5698989771
N -5.2466709970 5.7310915613 13.4857097597
N -9.7028222611 4.3085923057 8.5440973828
H -9.9884523432 3.3342174504 8.4618844750
H -10.5051595399 4.9320416352 8.4723309087
H -6.3722426453 3.1073802591 11.4544326615
H -7.7261901392 7.2047875453 11.4943112668
H -8.0002203814 2.5846706109 9.6572349711
H -9.3554315645 6.6857129682 9.6973482077
63
Frame from Quantum Espresso Output
Zn -1.0735560000 1.0841420000 1.1977640000
Zn -2.3094850000 6.1646920000 1.1977640000
Zn -4.2192319961 0.3183878263 4.3605657368
Zn -5.4627796049 5.3970851346 4.3648303338
Zn -8.1639427071 -0.6537644797 5.8123195627
Zn -9.3534175960 4.4383686059 5.9761667534
Zn -1.6915200000 3.6244170000 1.1977640000
Zn -2.9274500000 8.7049670000 1.1977640000
Zn -4.8462842378 2.8606309580 4.3594647133
Zn -6.0756654978 7.9352269387 4.3638178586
Zn -8.7841207505 1.8787088950 5.8017758937
Zn -10.0200989624 6.9719751927 5.8082574508
Zn 4.4565960000 1.0841420000 1.1977640000
Zn 3.2206660000 6.1646920000 1.1977640000
Zn 0.4280577933 0.1044028534 3.4606500333
Zn -0.8065415097 5.1932757590 3.4370659066
Zn -2.0640970541 -0.4912870136 5.6782220699
Zn -3.3014078280 4.5829663800 5.6752938568
Zn 3.8386310000 3.6244170000 1.1977640000
Zn 2.6027020000 8.7049670000 1.1977640000
Zn -0.1855405662 2.6393526685 3.4387487360
Zn -1.4253894930 7.7251462435 3.4610884562
Zn -2.6830004745 2.0440000752 5.6720775314
Zn -3.9179486104 7.1217995146 5.6819459887
Zn 1.6915200000 0.4114910000 0.8555450000
Zn 0.4555910000 5.4920410000 0.8555450000
Zn -2.2312267214 -0.5415389184 2.8792297042
Zn -3.4765924705 4.5382919096 2.8731311626
Zn -6.0433868493 -1.4711844271 4.4127273208
Zn -7.3008377839 3.6071911812 4.4693671357
Zn 1.0735560000 2.9517660000 0.8555450000
Zn -0.1623740000 8.0323160000 0.8555450000
Zn -2.8565753627 1.9985964621 2.8749318024
Zn -4.0872095082 7.0802461663 2.8792109668
Zn -6.6644374176 1.0659130130 4.4163945031
Zn -7.9108399268 6.1365677542 4.4646818084
Zn 7.2216720000 0.4114910000 0.8555450000
Zn 5.9857420000 5.4920410000 0.8555450000
Zn 3.0113150091 -0.6134347242 2.9204038288
Zn 1.7870862983 4.4687319833 2.9364454431
Zn 0.4182039229 -1.2320630566 5.8088388294
Zn -0.8051960547 3.8519104593 5.7243619662
Zn 6.6037070000 2.9517660000 0.8555450000
Zn 5.3677780000 8.0323160000 0.8555450000
Zn 2.4060802723 1.9331007135 2.9163234305
Zn 1.1732723398 7.0077721706 2.9234678643
Zn -0.1926405661 1.3201332772 5.8196460309
Zn -1.4274775319 6.3799771348 5.8153758643
C -6.0098538605 5.4876973604 12.6352188909
C -6.9406211936 5.1906094745 11.5965120526
C -7.7876036553 6.1948125731 11.0880047550
C -7.0262399916 3.8887085948 11.0657299986
C -8.7013172315 5.9017489536 10.0850516432
C -7.9403245968 3.5968093488 10.0627318472
C -8.7993795187 4.5962614283 9.5699024081
N -5.2464318559 5.7312445498 13.4845930793
N -9.7032631865 4.3082853921 8.5444156907
H -9.9888518216 3.3342497786 8.4616616167
H -10.5054536833 4.9318543464 8.4721628135
H -6.3723888375 3.1076139314 11.4536742970
H -7.7260638818 7.2045214617 11.4937182762
H -8.0002925280 2.5849688365 9.6568378503
H -9.3551661305 6.6854100039 9.6970494344
63
Frame from Quantum Espresso Output
Zn -1.0735560000 1.0841420000 1.1977640000
Zn -2.3094850000 6.1646920000 1.1977640000
Zn -4.2190602471 0.3183513498 4.3606980074
Zn -5.4629415151 5.3971058352 4.3650607730
Zn -8.1640039056 -0.6543357087 5.8128959099
Zn -9.3536026357 4.4387284436 5.9761779960
Zn -1.6915200000 3.6244170000 1.1977640000
Zn -2.9274500000 8.7049670000 1.1977640000
Zn -4.8459734058 2.8605663634 4.3594022959
Zn -6.0756085020 7.9353070687 4.3640708790
Zn -8.7846097654 1.8789780853 5.8020738789
Zn -10.0203873853 6.9713687665 5.8083571775
Zn 4.4565960000 1.0841420000 1.1977640000
Zn 3.2206660000 6.1646920000 1.1977640000
Zn 0.4275091248 0.1043929532 3.4611182688
Zn -0.8067365357 5.1929303553 3.4371417459
Zn -2.0642664123 -0.4912316978 5.6778165722
Zn -3.3019886322 4.5831383465 5.6748628458
Zn 3.8386310000 3.6244170000 1.1977640000
Zn 2.6027020000 8.7049670000 1.1977640000
Zn -0.1857506804 2.6391727823 3.4388249861
Zn -1.4258755585 7.7251960847 3.4613790205
Zn -2.6833622271 2.0436994123 5.6716792805
Zn -3.9181874097 7.1213811109 5.6815079904
Zn 1.6915200000 0.4114910000 0.8555450000
Zn 0.4555910000 5.4920410000 0.8555450000
Zn -2.2317714679 -0.5415437299 2.8790505985
Zn -3.4764611257 4.5381374535 2.8725068158
Zn -6.0431824111 -1.4718073851 4.4121763068
Zn -7.3007631224 3.6076341663 4.4686206084
Zn 1.0735560000 2.9517660000 0.8555450000
Zn -0.1623740000 8.0323160000 0.8555450000
Zn -2.8567550954 1.9987461570 2.8739490065
Zn -4.0873924511 7.0800234795 2.8791152266
Zn -6.6640145685 1.0656793881 4.4158268974
Zn -7.9109938340 6.1369292059 4.4639696500
Zn 7.2216720000 0.4114910000 0.8555450000
Zn 5.9857420000 5.4920410000 0.8555450000
Zn 3.0112636552 -0.6137545685 2.9205036776
Zn 1.7864149808 4.4688457748 2.9366680298
Zn 0.4178043262 -1.2321468996 5.8091355478
Zn -0.8058179076 3.8517877246 5.7243054177
Zn 6.6037070000 2.9517660000 0.8555450000
Zn 5.3677780000 8.0323160000 0.8555450000
Zn 2.4059756000 1.9332447269 2.9172831755
Zn 1.1728763211 7.0074736174 2.9234364206
Zn -0.1931586525 1.3200316741 5.8196706233
Zn -1.4274036179 6.3799033591 5.8157078978
C -6.0096354645 5.4876392152 12.6339717819
C -6.9407488741 5.1905976573 11.5959095518
C -7.7871439714 6.1947218712 11.0868579313
C -7.0260336445 3.8890067451 11.0645960554
C -8.7007357655 5.9016147838 10.0843306509
C -7.9400174343 3.5972129737 10.0619876721
C -8.7997564237 4.5960483589 9.5699040506
N -5.2463775913 5.7313194066 13.4834473456
N -9.7036932885 4.3081643201 8.5448143749
H -9.9891974364 3.3342299842 8.4613245248
H -10.5056001943 4.9316110054 8.4717685255
H -6.3726631819 3.1079716521 11.4529831346
H -7.7259540927 7.2041352491 11.4931836966
H -8.0005355480 2.5853548772 9.6566510824
H -9.3549968804 6.6849205065 9.6969973295
