32
Frame from Quantum Espresso Output
Zn -0.0000000013 1.5094014066 1.2726699898
Zn -0.0000000014 1.5094014062 3.4978553247
Zn 0.0562221023 1.5418671269 5.8860373657
Zn 0.0900804655 1.5614188427 8.0303677561
Zn -1.3071799293 3.7735034563 1.2726699898
Zn -1.3071799290 3.7735034559 3.4978553247
Zn -1.2509569054 3.8059701004 5.8860377667
Zn -1.2171005513 3.8255223634 8.0303668643
Zn 2.6143598544 1.5094014066 1.2726699898
Zn 2.6143598542 1.5094014062 3.4978553247
Zn 2.6684740773 1.5406505662 5.8780936931
Zn 2.7034181849 1.5608271434 8.0211323409
Zn 1.3071799267 3.7735034563 1.2726699898
Zn 1.3071799266 3.7735034559 3.4978553247
Zn 1.3612937819 3.8047518292 5.8780953294
Zn 1.3962380846 3.8249293646 8.0211356987
Zn 1.3071799291 0.7547006428 0.9525153450
Zn 1.3071799290 0.7547006424 3.1777006799
Zn 1.2780483787 0.7378722365 5.3464341927
Zn 1.3889381152 0.8019150875 7.7553299446
Zn 0.0000000011 3.0188026925 0.9525153450
Zn 0.0000000013 3.0188026921 3.1777006799
Zn -0.0291315791 3.0019743074 5.3464382617
Zn 0.0817584109 3.0660169064 7.7553326410
Zn 3.9215397847 0.7547006428 0.9525153450
Zn 3.9215397846 0.7547006424 3.1777006799
Zn 3.8918312193 0.7375393136 5.3469115688
Zn 4.0050714566 0.8029360232 7.7524736555
Zn 2.6143598571 3.0188026925 0.9525153450
Zn 2.6143598569 3.0188026921 3.1777006799
Zn 2.5846517005 3.0016419014 5.3469093105
Zn 2.6978901096 3.0670391851 7.7524737140
