79
Final Frame from Quantum Espresso Output
Zn -1.0735556040 1.0841422490 1.1977635440
Zn -2.3094850350 6.1646922450 1.1977635440
Zn -5.3677775260 0.0395003770 3.2510723350
Zn -6.6037069570 5.1200503720 3.2510723350
Zn -9.7089195560 -1.0153197644 5.5574001830
Zn -10.9444612646 4.0651762061 5.5568475472
Zn -13.6893239632 -1.9771446329 7.6339127518
Zn -14.9295904737 3.1015920561 7.6481116694
Zn -1.6915203190 3.6244172470 1.1977635440
Zn -2.9274497510 8.7049672430 1.1977635440
Zn -5.9857422410 2.5797753750 3.2510723350
Zn -7.2216716720 7.6603253700 3.2510723350
Zn -10.3264176447 1.5250682890 5.5573868096
Zn -11.5628996562 6.6053331603 5.5568587833
Zn -14.3159192177 0.5626376393 7.6412998841
Zn -15.5482960552 5.6409014453 7.6401112124
Zn 4.4565957630 1.0841422490 1.1977635440
Zn 3.2206663320 6.1646922450 1.1977635440
Zn 0.1623738410 0.0395003770 3.2510723350
Zn -1.0735555900 5.1200503720 3.2510723350
Zn -4.1792282939 -1.0153627723 5.5588462762
Zn -5.4152205082 4.0648737576 5.5585311673
Zn -8.1610154700 -1.9785746392 7.6341528905
Zn -9.4001047446 3.1042044881 7.6357263251
Zn 3.8386310480 3.6244172470 1.1977635440
Zn 2.6027016170 8.7049672430 1.1977635440
Zn -0.4555908740 2.5797753750 3.2510723350
Zn -1.6915203050 7.6603253700 3.2510723350
Zn -4.7972853979 1.5244358199 5.5588288137
Zn -6.0330863402 6.6056334593 5.5585535707
Zn -8.7827029279 0.5597971481 7.6368658403
Zn -10.0134112124 5.6439087793 7.6328710946
Zn 1.6915203330 0.4114908770 0.8555452480
Zn 0.4555909020 5.4920408730 0.8555452480
Zn -2.6027015890 -0.6331509950 2.9088540390
Zn -3.8386310200 4.4473990010 2.9088540390
Zn -6.9469216156 -1.6917672198 5.0366214099
Zn -8.1827395462 3.3890769520 5.0367887488
Zn -11.0951477898 -2.6937365307 7.2992254555
Zn -12.3362276839 2.3874578987 7.2967700039
Zn 1.0735556170 2.9517658750 0.8555452480
Zn -0.1623738140 8.0323158710 0.8555452480
Zn -3.2206663040 1.9071240030 2.9088540390
Zn -4.4565957350 6.9876739990 2.9088540390
Zn -7.5649765968 0.8484405585 5.0367436921
Zn -8.8005772481 5.9294148523 5.0366560249
Zn -11.7161115120 -0.1519095762 7.2971707242
Zn -12.9546709109 4.9267008095 7.2948394126
Zn 7.2216717000 0.4114908770 0.8555452480
Zn 5.9857422690 5.4920408730 0.8555452480
Zn 2.9274497780 -0.6331509950 2.9088540390
Zn 1.6915203470 4.4473990010 2.9088540390
Zn -1.4162111914 -1.6911008414 5.0365779004
Zn -2.6518817476 3.3887563827 5.0360840250
Zn -5.5596188052 -2.6896523498 7.2957612777
Zn -6.8213594740 2.3808186550 7.2289824952
Zn 6.6037069850 2.9517658750 0.8555452480
Zn 5.3677775540 8.0323158710 0.8555452480
Zn 2.3094850630 1.9071240030 2.9088540390
Zn 1.0735556320 6.9876739990 2.9088540390
Zn -2.0337195757 0.8489305936 5.0365785276
Zn -3.2702789950 5.9292477955 5.0360658650
Zn -6.1753004686 -0.1534723254 7.3033121311
Zn -7.4139105769 4.9327238936 7.2946418799
C -6.3011431726 2.6315838529 16.5067030238
C -6.3969277491 2.6078466471 15.0878307201
C -6.8153552507 3.7496052221 14.3702611481
C -6.0844570432 1.4351548867 14.3688139682
C -6.1702494005 1.4105126640 12.9875130140
C -6.9046365354 3.7216371270 12.9885329134
C -6.5719186833 2.5554720840 12.2643334647
N -6.2114718887 2.6585383338 17.6771245055
N -6.6200972963 2.5434787658 10.8978005545
H -6.5022053663 1.6797061339 10.3728727652
H -7.0156195637 3.3265782271 10.3818006913
H -7.0747045211 4.6647035789 14.9108819254
H -5.7707692453 0.5365286232 14.9084790410
H -5.9316542330 0.4905400926 12.4464326760
H -7.2336261691 4.6143012797 12.4470604399
