63
Final Frame from Quantum Espresso Output
Zn 1.2182900000 1.3071800000 0.7547010000
Zn 1.2182900000 6.5359000000 0.7547010000
Zn 1.2218908601 0.0029110836 3.5987229508
Zn 1.2213029524 5.2282302991 3.5970357032
Zn 1.2243958373 -1.3050963764 6.1139980149
Zn 1.2180879376 3.9220219962 6.1363534552
Zn 1.2182900000 3.9215400000 0.7547010000
Zn 1.2182900000 9.1502600000 0.7547010000
Zn 1.2198518159 2.6161889091 3.5939685009
Zn 1.2222336615 7.8447098328 3.5908068313
Zn 1.2177720046 1.3095088714 6.1163920200
Zn 1.2248471390 6.5375220020 6.1168398307
Zn 6.0914510000 1.3071800000 0.7547010000
Zn 6.0914510000 6.5359000000 0.7547010000
Zn 6.0869800252 0.0040433861 3.5963604163
Zn 6.0880580673 5.2295942105 3.5961283969
Zn 6.0836059439 -1.3045041195 6.1279575702
Zn 6.0864240165 3.9248209996 6.1195962296
Zn 6.0914510000 3.9215400000 0.7547010000
Zn 6.0914510000 9.1502600000 0.7547010000
Zn 6.0903522706 2.6154291292 3.5930915909
Zn 6.0855490156 7.8445104102 3.5900181666
Zn 6.0836868997 1.3127748802 6.1538781073
Zn 6.0855053741 6.5378414554 6.1194889406
Zn 3.6548710000 -0.0000000000 1.5094010000
Zn 3.6548710000 5.2287200000 1.5094010000
Zn 3.6516011769 -1.3034651351 3.7792168574
Zn 3.6507881168 3.9223681241 3.7728519685
Zn 3.6494583135 -2.6131568309 6.1610502117
Zn 3.6429603984 2.6194975705 6.1253774020
Zn 3.6548710000 2.6143600000 1.5094010000
Zn 3.6548710000 7.8430800000 1.5094010000
Zn 3.6553791576 1.3098567365 3.7736003190
Zn 3.6509646103 6.5358396732 3.7769380157
Zn 3.6501176833 0.0105838182 6.1532156143
Zn 3.6466417593 5.2244429740 6.1487950370
Zn 8.5280310000 -0.0000000000 1.5094010000
Zn 8.5280310000 5.2287200000 1.5094010000
Zn 8.5278110118 -1.3053820051 3.7776264286
Zn 8.5308708307 3.9217898535 3.7808762493
Zn 8.5329899378 -2.6135792576 6.1482651524
Zn 8.5295031115 2.6166034913 6.1630512220
Zn 8.5280310000 2.6143600000 1.5094010000
Zn 8.5280310000 7.8430800000 1.5094010000
Zn 8.5288998982 1.3092656235 3.7809679238
Zn 8.5314560128 6.5356403409 3.7764299448
Zn 8.5282872037 -0.0003469687 6.1562888408
Zn 8.5354034118 5.2326554836 6.1559732172
C 3.8462587982 1.9907326126 15.2300627741
C 3.8336797364 2.0953454531 13.8089231655
C 4.8310211107 2.8227310392 13.1298091920
C 2.8252167367 1.4715011410 13.0485173518
C 4.8184299907 2.9281711421 11.7474678103
C 2.8085321827 1.5732583004 11.6665325999
C 3.8018970511 2.3111008362 10.9844571416
N 3.8546705688 1.9030167145 16.3958462445
N 3.7572514936 2.4572809021 9.6228694061
H 3.1227018820 1.9043516989 9.0602215989
H 4.5359483895 2.8590477951 9.1159822862
H 2.0511468552 0.9046153730 13.5635242549
H 5.6162579716 3.3074406410 13.7069847799
H 2.0177897772 1.0848801425 11.0930220142
H 5.5966093434 3.4998192703 11.2379439164
