62
Final Frame from Quantum Espresso Output
Zn -1.0735560000 1.0841420000 1.1977640000
Zn -2.3094850000 6.1646920000 1.1977640000
Zn -4.8560635060 0.1660884721 3.8722012561
Zn -6.1061914993 5.2339866062 3.8590886388
Zn -9.0144817816 -0.8608677963 5.7415783659
Zn -10.2619296682 4.2378060307 5.7407606959
Zn -1.6915200000 3.6244170000 1.1977640000
Zn -2.9274500000 8.7049670000 1.1977640000
Zn -5.4846901519 2.6992304582 3.8762172371
Zn -6.7142184828 7.7819470461 3.8597967097
Zn -9.6534396713 1.6846982644 5.8591976028
Zn -10.8731598321 6.7691662510 5.7409021655
Zn 4.4565960000 1.0841420000 1.1977640000
Zn 3.2206660000 6.1646920000 1.1977640000
Zn 0.5723816015 0.1428145245 3.4466125045
Zn -0.6735842597 5.2107785291 3.3995365692
Zn -3.1081020225 -0.7626030042 5.7610250355
Zn -4.3494859917 4.3269937458 5.7596849593
Zn 3.8386310000 3.6244170000 1.1977640000
Zn 2.6027020000 8.7049670000 1.1977640000
Zn -0.0360074862 2.6712495745 3.4453077944
Zn -1.3015836159 7.7565430394 3.3994576221
Zn -3.7260160278 1.7871906320 5.7590260262
Zn -4.9688612515 6.8578101864 5.7615006403
Zn 1.6915200000 0.4114910000 0.8555450000
Zn 0.4555910000 5.4920410000 0.8555450000
Zn -2.3519092431 -0.5693928046 2.9562994769
Zn -3.6072522296 4.5039121305 2.9517369124
Zn -6.5244147006 -1.5874134597 4.9955735177
Zn -7.7940239075 3.4777044818 5.0040986274
Zn 1.0735560000 2.9517660000 0.8555450000
Zn -0.1623740000 8.0323160000 0.8555450000
Zn -2.9807935389 1.9674992905 2.9542519845
Zn -4.2149999709 7.0493932995 2.9535701473
Zn -7.1735287887 0.9484696772 4.9985189719
Zn -8.3814006872 6.0298150391 5.0016473515
Zn 7.2216720000 0.4114910000 0.8555450000
Zn 5.9857420000 5.4920410000 0.8555450000
Zn 3.1594218323 -0.5778567472 2.8966918690
Zn 1.9294813499 4.5053956919 2.8964760577
Zn -0.6378460048 -1.5065450539 5.1418594595
Zn -1.8845049254 3.5811733749 5.1188183361
Zn 6.6037070000 2.9517660000 0.8555450000
Zn 5.3677780000 8.0323160000 0.8555450000
Zn 2.5464130646 1.9649624485 2.8902703880
Zn 1.3128131525 7.0448936364 2.9019241854
Zn -1.2693450594 1.0350506113 5.1259243206
Zn -2.5013278153 6.1169169362 5.1010806747
C -10.1216876890 2.8145822249 11.2004220089
C -10.2882665869 2.7503509779 12.5838968626
C -9.7553694222 1.6729190486 10.4755283082
C -10.1088244243 1.5532501089 13.2751593659
C -9.5928999400 0.4645753797 11.1671002637
C -9.7636443127 0.4140497002 12.5507499473
N -9.5660204036 1.7346654436 9.0778634531
H -10.2720178002 3.7642926253 10.6821210901
H -9.2902021560 2.6560559430 8.7510478774
H -10.5540554141 3.6517764528 13.1323423839
H -8.9187298969 1.0329291440 8.7296172327
H -10.2147279446 1.5137979005 14.3587188644
H -9.3267991725 -0.4433554668 10.6221449328
H -9.6144462158 -0.5292776012 13.0724905597
