32
Final Frame from Quantum Espresso Output
Zn -1.0735556570 1.0841422360 1.1977635690
Zn -5.3677776710 0.0395003420 3.2510724040
Zn -9.6619996840 -1.0051415520 5.5739401178
Zn -13.9562216980 -2.0497834460 7.7839751420
Zn -1.6915203730 3.6244172340 1.1977635690
Zn -5.9857423860 2.5797753400 3.2510724040
Zn -10.2799644000 1.5351334460 5.5739416709
Zn -14.5741864140 0.4904915520 7.7839751401
Zn 4.4565957100 1.0841422360 1.1977635690
Zn 0.1623736960 0.0395003420 3.2510724040
Zn -4.1318483170 -1.0051415520 5.5782643783
Zn -8.4260703310 -2.0497834460 7.7788438206
Zn 3.8386309950 3.6244172340 1.1977635690
Zn -0.4555910190 2.5797753400 3.2510724040
Zn -4.7498130330 1.5351334460 5.5782644825
Zn -9.0440350470 0.4904915520 7.7788450047
Zn 1.6915202950 0.4114908680 0.8555452660
Zn -2.6027017190 -0.6331510260 2.9088541010
Zn -6.8969237320 -1.6777929200 5.1339814584
Zn -11.1911457460 -2.7224348140 7.4144171919
Zn 1.0735555790 2.9517658660 0.8555452660
Zn -3.2206664340 1.9071239720 2.9088541010
Zn -7.5148884480 0.8624820780 5.1339820230
Zn -11.8091104620 -0.1821598160 7.4144191526
Zn 7.2216716620 0.4114908680 0.8555452660
Zn 2.9274496480 -0.6331510260 2.9088541010
Zn -1.3667723650 -1.6777929200 5.1345216941
Zn -5.6609943790 -2.7224348140 7.4158144862
Zn 6.6037069470 2.9517658660 0.8555452660
Zn 2.3094849330 1.9071239720 2.9088541010
Zn -1.9847370810 0.8624820780 5.1345216663
Zn -6.2789590950 -0.1821598160 7.4158116526
