32
Frame from Quantum Espresso Output
Zn 1.2182902100 1.3071799410 0.7547006760
Zn 1.2182902100 0.0000000130 3.0188027260
Zn 1.2182902100 -1.3071799150 5.2857821440
Zn 1.2182902100 -2.6143598430 7.5625491103
Zn 1.2182902100 3.9215397970 0.7547006760
Zn 1.2182902100 2.6143598690 3.0188027260
Zn 1.2182902100 1.3071799410 5.2857828277
Zn 1.2182902100 0.0000000130 7.5625488942
Zn 6.0914510490 1.3071799410 0.7547006760
Zn 6.0914510490 0.0000000130 3.0188027260
Zn 6.0914510490 -1.3071799150 5.2857264718
Zn 6.0914510490 -2.6143598430 7.5623728522
Zn 6.0914510490 3.9215397970 0.7547006760
Zn 6.0914510490 2.6143598690 3.0188027260
Zn 6.0914510490 1.3071799410 5.2857258662
Zn 6.0914510490 0.0000000130 7.5623728480
Zn 3.6548706290 -0.0000000130 1.5094013740
Zn 3.6548706290 -1.3071799410 3.7735034240
Zn 3.6548706290 -2.6143598690 6.0309341638
Zn 3.6548706290 -3.9215397970 8.3071580448
Zn 3.6548706290 2.6143598430 1.5094013740
Zn 3.6548706290 1.3071799150 3.7735034240
Zn 3.6548706290 -0.0000000130 6.0309345778
Zn 3.6548706290 -1.3071799410 8.3071585385
Zn 8.5280314680 -0.0000000130 1.5094013740
Zn 8.5280314680 -1.3071799410 3.7735034240
Zn 8.5280314680 -2.6143598690 6.0308861919
Zn 8.5280314680 -3.9215397970 8.3070729344
Zn 8.5280314680 2.6143598430 1.5094013740
Zn 8.5280314680 1.3071799150 3.7735034240
Zn 8.5280314680 -0.0000000130 6.0308867273
Zn 8.5280314680 -1.3071799410 8.3070725701
32
Frame from Quantum Espresso Output
Zn 1.2182902100 1.3071799410 0.7547006760
Zn 1.2182902100 0.0000000130 3.0188027260
Zn 1.2182902100 -1.3071799150 5.2895231262
Zn 1.2182902100 -2.6143598430 7.5796456242
Zn 1.2182902100 3.9215397970 0.7547006760
Zn 1.2182902100 2.6143598690 3.0188027260
Zn 1.2182902100 1.3071799410 5.2895239760
Zn 1.2182902100 0.0000000130 7.5796453143
Zn 6.0914510490 1.3071799410 0.7547006760
Zn 6.0914510490 0.0000000130 3.0188027260
Zn 6.0914510490 -1.3071799150 5.2894417611
Zn 6.0914510490 -2.6143598430 7.5794383774
Zn 6.0914510490 3.9215397970 0.7547006760
Zn 6.0914510490 2.6143598690 3.0188027260
Zn 6.0914510490 1.3071799410 5.2894411301
Zn 6.0914510490 0.0000000130 7.5794383429
Zn 3.6548706290 -0.0000000130 1.5094013740
Zn 3.6548706290 -1.3071799410 3.7735034240
Zn 3.6548706290 -2.6143598690 6.0244644832
Zn 3.6548706290 -3.9215397970 8.3128893214
Zn 3.6548706290 2.6143598430 1.5094013740
Zn 3.6548706290 1.3071799150 3.7735034240
Zn 3.6548706290 -0.0000000130 6.0244649967
Zn 3.6548706290 -1.3071799410 8.3128899449
Zn 8.5280314680 -0.0000000130 1.5094013740
Zn 8.5280314680 -1.3071799410 3.7735034240
Zn 8.5280314680 -2.6143598690 6.0243540230
Zn 8.5280314680 -3.9215397970 8.3127806628
Zn 8.5280314680 2.6143598430 1.5094013740
Zn 8.5280314680 1.3071799150 3.7735034240
Zn 8.5280314680 -0.0000000130 6.0243547546
Zn 8.5280314680 -1.3071799410 8.3127802331
32
Frame from Quantum Espresso Output
Zn 1.2182902100 1.3071799410 0.7547006760
Zn 1.2182902100 0.0000000130 3.0188027260
Zn 1.2182902100 -1.3071799150 5.2966222861
Zn 1.2182902100 -2.6143598430 7.6052625698
Zn 1.2182902100 3.9215397970 0.7547006760
Zn 1.2182902100 2.6143598690 3.0188027260
Zn 1.2182902100 1.3071799410 5.2966234440
Zn 1.2182902100 0.0000000130 7.6052621593
Zn 6.0914510490 1.3071799410 0.7547006760
Zn 6.0914510490 0.0000000130 3.0188027260
Zn 6.0914510490 -1.3071799150 5.2964962327
Zn 6.0914510490 -2.6143598430 7.6050831470
Zn 6.0914510490 3.9215397970 0.7547006760
Zn 6.0914510490 2.6143598690 3.0188027260
Zn 6.0914510490 1.3071799410 5.2964952685
Zn 6.0914510490 0.0000000130 7.6050831137
Zn 3.6548706290 -0.0000000130 1.5094013740
Zn 3.6548706290 -1.3071799410 3.7735034240
Zn 3.6548706290 -2.6143598690 6.0157506630
Zn 3.6548706290 -3.9215397970 8.3206575205
Zn 3.6548706290 2.6143598430 1.5094013740
Zn 3.6548706290 1.3071799150 3.7735034240
Zn 3.6548706290 -0.0000000130 6.0157513752
Zn 3.6548706290 -1.3071799410 8.3206583802
Zn 8.5280314680 -0.0000000130 1.5094013740
Zn 8.5280314680 -1.3071799410 3.7735034240
Zn 8.5280314680 -2.6143598690 6.0157257289
Zn 8.5280314680 -3.9215397970 8.3205411856
Zn 8.5280314680 2.6143598430 1.5094013740
Zn 8.5280314680 1.3071799150 3.7735034240
Zn 8.5280314680 -0.0000000130 6.0157266928
Zn 8.5280314680 -1.3071799410 8.3205405180
32
Frame from Quantum Espresso Output
Zn 1.2182902100 1.3071799410 0.7547006760
Zn 1.2182902100 0.0000000130 3.0188027260
Zn 1.2182902100 -1.3071799150 5.3078801626
Zn 1.2182902100 -2.6143598430 7.6437297260
Zn 1.2182902100 3.9215397970 0.7547006760
Zn 1.2182902100 2.6143598690 3.0188027260
Zn 1.2182902100 1.3071799410 5.3078817528
Zn 1.2182902100 0.0000000130 7.6437291640
Zn 6.0914510490 1.3071799410 0.7547006760
Zn 6.0914510490 0.0000000130 3.0188027260
Zn 6.0914510490 -1.3071799150 5.3081275528
Zn 6.0914510490 -2.6143598430 7.6434646907
Zn 6.0914510490 3.9215397970 0.7547006760
Zn 6.0914510490 2.6143598690 3.0188027260
Zn 6.0914510490 1.3071799410 5.3081261140
Zn 6.0914510490 0.0000000130 7.6434646829
Zn 3.6548706290 -0.0000000130 1.5094013740
Zn 3.6548706290 -1.3071799410 3.7735034240
Zn 3.6548706290 -2.6143598690 6.0046138840
Zn 3.6548706290 -3.9215397970 8.3317507784
Zn 3.6548706290 2.6143598430 1.5094013740
Zn 3.6548706290 1.3071799150 3.7735034240
Zn 3.6548706290 -0.0000000130 6.0046148597
Zn 3.6548706290 -1.3071799410 8.3317520093
Zn 8.5280314680 -0.0000000130 1.5094013740
Zn 8.5280314680 -1.3071799410 3.7735034240
Zn 8.5280314680 -2.6143598690 6.0042560400
Zn 8.5280314680 -3.9215397970 8.3316341767
Zn 8.5280314680 2.6143598430 1.5094013740
Zn 8.5280314680 1.3071799150 3.7735034240
Zn 8.5280314680 -0.0000000130 6.0042573095
Zn 8.5280314680 -1.3071799410 8.3316331927
32
Frame from Quantum Espresso Output
Zn 1.2182902100 1.3071799410 0.7547006760
Zn 1.2182902100 0.0000000130 3.0188027260
Zn 1.2182902100 -1.3071799150 5.3267073945
Zn 1.2182902100 -2.6143598430 7.7014304602
Zn 1.2182902100 3.9215397970 0.7547006760
Zn 1.2182902100 2.6143598690 3.0188027260
Zn 1.2182902100 1.3071799410 5.3267096388
Zn 1.2182902100 0.0000000130 7.7014296620
Zn 6.0914510490 1.3071799410 0.7547006760
Zn 6.0914510490 0.0000000130 3.0188027260
Zn 6.0914510490 -1.3071799150 5.3271609515
Zn 6.0914510490 -2.6143598430 7.7008249960
Zn 6.0914510490 3.9215397970 0.7547006760
Zn 6.0914510490 2.6143598690 3.0188027260
Zn 6.0914510490 1.3071799410 5.3271588223
Zn 6.0914510490 0.0000000130 7.7008250076
Zn 3.6548706290 -0.0000000130 1.5094013740
Zn 3.6548706290 -1.3071799410 3.7735034240
Zn 3.6548706290 -2.6143598690 5.9905407952
Zn 3.6548706290 -3.9215397970 8.3473385740
Zn 3.6548706290 2.6143598430 1.5094013740
Zn 3.6548706290 1.3071799150 3.7735034240
Zn 3.6548706290 -0.0000000130 5.9905421569
Zn 3.6548706290 -1.3071799410 8.3473403776
Zn 8.5280314680 -0.0000000130 1.5094013740
Zn 8.5280314680 -1.3071799410 3.7735034240
Zn 8.5280314680 -2.6143598690 5.9898574135
Zn 8.5280314680 -3.9215397970 8.3470682246
Zn 8.5280314680 2.6143598430 1.5094013740
Zn 8.5280314680 1.3071799150 3.7735034240
Zn 8.5280314680 -0.0000000130 5.9898591263
Zn 8.5280314680 -1.3071799410 8.3470667635
32
Frame from Quantum Espresso Output
Zn 1.2182902100 1.3071799410 0.7547006760
Zn 1.2182902100 0.0000000130 3.0188027260
Zn 1.2182902100 -1.3071799150 5.3568542184
Zn 1.2182902100 -2.6143598430 7.7879815616
Zn 1.2182902100 3.9215397970 0.7547006760
Zn 1.2182902100 2.6143598690 3.0188027260
Zn 1.2182902100 1.3071799410 5.3568574469
Zn 1.2182902100 0.0000000130 7.7879803964
Zn 6.0914510490 1.3071799410 0.7547006760
Zn 6.0914510490 0.0000000130 3.0188027260
Zn 6.0914510490 -1.3071799150 5.3579931101
Zn 6.0914510490 -2.6143598430 7.7871388424
Zn 6.0914510490 3.9215397970 0.7547006760
Zn 6.0914510490 2.6143598690 3.0188027260
Zn 6.0914510490 1.3071799410 5.3579899666
Zn 6.0914510490 0.0000000130 7.7871388842
Zn 3.6548706290 -0.0000000130 1.5094013740
Zn 3.6548706290 -1.3071799410 3.7735034240
Zn 3.6548706290 -2.6143598690 5.9735981261
Zn 3.6548706290 -3.9215397970 8.3692642560
Zn 3.6548706290 2.6143598430 1.5094013740
Zn 3.6548706290 1.3071799150 3.7735034240
Zn 3.6548706290 -0.0000000130 5.9736000386
Zn 3.6548706290 -1.3071799410 8.3692669295
Zn 8.5280314680 -0.0000000130 1.5094013740
Zn 8.5280314680 -1.3071799410 3.7735034240
Zn 8.5280314680 -2.6143598690 5.9722623603
Zn 8.5280314680 -3.9215397970 8.3689389387
Zn 8.5280314680 2.6143598430 1.5094013740
Zn 8.5280314680 1.3071799150 3.7735034240
Zn 8.5280314680 -0.0000000130 5.9722647154
Zn 8.5280314680 -1.3071799410 8.3689367651
32
Frame from Quantum Espresso Output
Zn 1.2182902100 1.3071799410 0.7547006760
Zn 1.2182902100 0.0000000130 3.0188027260
Zn 1.2182902100 -1.3071799150 5.4054522461
Zn 1.2182902100 -2.6143598430 7.9178082137
Zn 1.2182902100 3.9215397970 0.7547006760
Zn 1.2182902100 2.6143598690 3.0188027260
Zn 1.2182902100 1.3071799410 5.4054569509
Zn 1.2182902100 0.0000000130 7.9178064712
Zn 6.0914510490 1.3071799410 0.7547006760
Zn 6.0914510490 0.0000000130 3.0188027260
Zn 6.0914510490 -1.3071799150 5.4065740052
Zn 6.0914510490 -2.6143598430 7.9166883016
Zn 6.0914510490 3.9215397970 0.7547006760
Zn 6.0914510490 2.6143598690 3.0188027260
Zn 6.0914510490 1.3071799410 5.4065693698
Zn 6.0914510490 0.0000000130 7.9166883788
Zn 3.6548706290 -0.0000000130 1.5094013740
Zn 3.6548706290 -1.3071799410 3.7735034240
Zn 3.6548706290 -2.6143598690 5.9547209719
Zn 3.6548706290 -3.9215397970 8.3999980025
Zn 3.6548706290 2.6143598430 1.5094013740
Zn 3.6548706290 1.3071799150 3.7735034240
Zn 3.6548706290 -0.0000000130 5.9547236360
Zn 3.6548706290 -1.3071799410 8.4000019864
Zn 8.5280314680 -0.0000000130 1.5094013740
Zn 8.5280314680 -1.3071799410 3.7735034240
Zn 8.5280314680 -2.6143598690 5.9535172327
Zn 8.5280314680 -3.9215397970 8.3994569367
Zn 8.5280314680 2.6143598430 1.5094013740
Zn 8.5280314680 1.3071799150 3.7735034240
Zn 8.5280314680 -0.0000000130 5.9535204742
Zn 8.5280314680 -1.3071799410 8.3994537063
32
Frame from Quantum Espresso Output
Zn 1.2182902100 1.3071799410 0.7547006760
Zn 1.2182902100 0.0000000130 3.0188027260
Zn 1.2182902100 -1.3071799150 5.4606231816
Zn 1.2182902100 -2.6143598430 8.0530998291
Zn 1.2182902100 3.9215397970 0.7547006760
Zn 1.2182902100 2.6143598690 3.0188027260
Zn 1.2182902100 1.3071799410 5.4606294523
Zn 1.2182902100 0.0000000130 8.0530974416
Zn 6.0914510490 1.3071799410 0.7547006760
Zn 6.0914510490 0.0000000130 3.0188027260
Zn 6.0914510490 -1.3071799150 5.4617086381
Zn 6.0914510490 -2.6143598430 8.0516961637
Zn 6.0914510490 3.9215397970 0.7547006760
Zn 6.0914510490 2.6143598690 3.0188027260
Zn 6.0914510490 1.3071799410 5.4617024611
Zn 6.0914510490 0.0000000130 8.0516962579
Zn 3.6548706290 -0.0000000130 1.5094013740
Zn 3.6548706290 -1.3071799410 3.7735034240
Zn 3.6548706290 -2.6143598690 5.9461075050
Zn 3.6548706290 -3.9215397970 8.4286898163
Zn 3.6548706290 2.6143598430 1.5094013740
Zn 3.6548706290 1.3071799150 3.7735034240
Zn 3.6548706290 -0.0000000130 5.9461108175
Zn 3.6548706290 -1.3071799410 8.4286951748
Zn 8.5280314680 -0.0000000130 1.5094013740
Zn 8.5280314680 -1.3071799410 3.7735034240
Zn 8.5280314680 -2.6143598690 5.9450066113
Zn 8.5280314680 -3.9215397970 8.4277579305
Zn 8.5280314680 2.6143598430 1.5094013740
Zn 8.5280314680 1.3071799150 3.7735034240
Zn 8.5280314680 -0.0000000130 5.9450106280
Zn 8.5280314680 -1.3071799410 8.4277536144
32
Frame from Quantum Espresso Output
Zn 1.2182902100 1.3071799410 0.7547006760
Zn 1.2182902100 0.0000000130 3.0188027260
Zn 1.2182902100 -1.3071799150 5.5106460145
Zn 1.2182902100 -2.6143598430 8.1652341468
Zn 1.2182902100 3.9215397970 0.7547006760
Zn 1.2182902100 2.6143598690 3.0188027260
Zn 1.2182902100 1.3071799410 5.5106536052
Zn 1.2182902100 0.0000000130 8.1652311777
Zn 6.0914510490 1.3071799410 0.7547006760
Zn 6.0914510490 0.0000000130 3.0188027260
Zn 6.0914510490 -1.3071799150 5.5117813233
Zn 6.0914510490 -2.6143598430 8.1634153695
Zn 6.0914510490 3.9215397970 0.7547006760
Zn 6.0914510490 2.6143598690 3.0188027260
Zn 6.0914510490 1.3071799410 5.5117738830
Zn 6.0914510490 0.0000000130 8.1634154538
Zn 3.6548706290 -0.0000000130 1.5094013740
Zn 3.6548706290 -1.3071799410 3.7735034240
Zn 3.6548706290 -2.6143598690 5.9520306550
Zn 3.6548706290 -3.9215397970 8.4486847222
Zn 3.6548706290 2.6143598430 1.5094013740
Zn 3.6548706290 1.3071799150 3.7735034240
Zn 3.6548706290 -0.0000000130 5.9520343048
Zn 3.6548706290 -1.3071799410 8.4486911812
Zn 8.5280314680 -0.0000000130 1.5094013740
Zn 8.5280314680 -1.3071799410 3.7735034240
Zn 8.5280314680 -2.6143598690 5.9505181295
Zn 8.5280314680 -3.9215397970 8.4474395441
Zn 8.5280314680 2.6143598430 1.5094013740
Zn 8.5280314680 1.3071799150 3.7735034240
Zn 8.5280314680 -0.0000000130 5.9505225649
Zn 8.5280314680 -1.3071799410 8.4474343786
32
Frame from Quantum Espresso Output
Zn 1.2182902100 1.3071799410 0.7547006760
Zn 1.2182902100 0.0000000130 3.0188027260
Zn 1.2182902100 -1.3071799150 5.5717879793
Zn 1.2182902100 -2.6143598430 8.2885818963
Zn 1.2182902100 3.9215397970 0.7547006760
Zn 1.2182902100 2.6143598690 3.0188027260
Zn 1.2182902100 1.3071799410 5.5717970473
Zn 1.2182902100 0.0000000130 8.2885782475
Zn 6.0914510490 1.3071799410 0.7547006760
Zn 6.0914510490 0.0000000130 3.0188027260
Zn 6.0914510490 -1.3071799150 5.5723892354
Zn 6.0914510490 -2.6143598430 8.2865407480
Zn 6.0914510490 3.9215397970 0.7547006760
Zn 6.0914510490 2.6143598690 3.0188027260
Zn 6.0914510490 1.3071799410 5.5723804340
Zn 6.0914510490 0.0000000130 8.2865407897
Zn 3.6548706290 -0.0000000130 1.5094013740
Zn 3.6548706290 -1.3071799410 3.7735034240
Zn 3.6548706290 -2.6143598690 5.9755045275
Zn 3.6548706290 -3.9215397970 8.4657952347
Zn 3.6548706290 2.6143598430 1.5094013740
Zn 3.6548706290 1.3071799150 3.7735034240
Zn 3.6548706290 -0.0000000130 5.9755082401
Zn 3.6548706290 -1.3071799410 8.4658028060
Zn 8.5280314680 -0.0000000130 1.5094013740
Zn 8.5280314680 -1.3071799410 3.7735034240
Zn 8.5280314680 -2.6143598690 5.9747673028
Zn 8.5280314680 -3.9215397970 8.4637799927
Zn 8.5280314680 2.6143598430 1.5094013740
Zn 8.5280314680 1.3071799150 3.7735034240
Zn 8.5280314680 -0.0000000130 5.9747718459
Zn 8.5280314680 -1.3071799410 8.4637740106
32
Frame from Quantum Espresso Output
Zn 1.2182902100 1.3071799410 0.7547006760
Zn 1.2182902100 0.0000000130 3.0188027260
Zn 1.2182902100 -1.3071799150 5.6263486938
Zn 1.2182902100 -2.6143598430 8.3806718533
Zn 1.2182902100 3.9215397970 0.7547006760
Zn 1.2182902100 2.6143598690 3.0188027260
Zn 1.2182902100 1.3071799410 5.6263588446
Zn 1.2182902100 0.0000000130 8.3806676558
Zn 6.0914510490 1.3071799410 0.7547006760
Zn 6.0914510490 0.0000000130 3.0188027260
Zn 6.0914510490 -1.3071799150 5.6265252207
Zn 6.0914510490 -2.6143598430 8.3781646745
Zn 6.0914510490 3.9215397970 0.7547006760
Zn 6.0914510490 2.6143598690 3.0188027260
Zn 6.0914510490 1.3071799410 5.6265155006
Zn 6.0914510490 0.0000000130 8.3781646412
Zn 3.6548706290 -0.0000000130 1.5094013740
Zn 3.6548706290 -1.3071799410 3.7735034240
Zn 3.6548706290 -2.6143598690 6.0188092525
Zn 3.6548706290 -3.9215397970 8.4710690708
Zn 3.6548706290 2.6143598430 1.5094013740
Zn 3.6548706290 1.3071799150 3.7735034240
Zn 3.6548706290 -0.0000000130 6.0188125268
Zn 3.6548706290 -1.3071799410 8.4710771944
Zn 8.5280314680 -0.0000000130 1.5094013740
Zn 8.5280314680 -1.3071799410 3.7735034240
Zn 8.5280314680 -2.6143598690 6.0177029003
Zn 8.5280314680 -3.9215397970 8.4684978525
Zn 8.5280314680 2.6143598430 1.5094013740
Zn 8.5280314680 1.3071799150 3.7735034240
Zn 8.5280314680 -0.0000000130 6.0177069645
Zn 8.5280314680 -1.3071799410 8.4684915037
32
Frame from Quantum Espresso Output
Zn 1.2182902100 1.3071799410 0.7547006760
Zn 1.2182902100 0.0000000130 3.0188027260
Zn 1.2182902100 -1.3071799150 5.6499704338
Zn 1.2182902100 -2.6143598430 8.4011540624
Zn 1.2182902100 3.9215397970 0.7547006760
Zn 1.2182902100 2.6143598690 3.0188027260
Zn 1.2182902100 1.3071799410 5.6499807231
Zn 1.2182902100 0.0000000130 8.4011497406
Zn 6.0914510490 1.3071799410 0.7547006760
Zn 6.0914510490 0.0000000130 3.0188027260
Zn 6.0914510490 -1.3071799150 5.6495965877
Zn 6.0914510490 -2.6143598430 8.3986626082
Zn 6.0914510490 3.9215397970 0.7547006760
Zn 6.0914510490 2.6143598690 3.0188027260
Zn 6.0914510490 1.3071799410 5.6495868585
Zn 6.0914510490 0.0000000130 8.3986625071
Zn 3.6548706290 -0.0000000130 1.5094013740
Zn 3.6548706290 -1.3071799410 3.7735034240
Zn 3.6548706290 -2.6143598690 6.0583818894
Zn 3.6548706290 -3.9215397970 8.4638856215
Zn 3.6548706290 2.6143598430 1.5094013740
Zn 3.6548706290 1.3071799150 3.7735034240
Zn 3.6548706290 -0.0000000130 6.0583844076
Zn 3.6548706290 -1.3071799410 8.4638933919
Zn 8.5280314680 -0.0000000130 1.5094013740
Zn 8.5280314680 -1.3071799410 3.7735034240
Zn 8.5280314680 -2.6143598690 6.0577153991
Zn 8.5280314680 -3.9215397970 8.4608943336
Zn 8.5280314680 2.6143598430 1.5094013740
Zn 8.5280314680 1.3071799150 3.7735034240
Zn 8.5280314680 -0.0000000130 6.0577185906
Zn 8.5280314680 -1.3071799410 8.4608883311
32
Frame from Quantum Espresso Output
Zn 1.2182902100 1.3071799410 0.7547006760
Zn 1.2182902100 0.0000000130 3.0188027260
Zn 1.2182902100 -1.3071799150 5.6407567397
Zn 1.2182902100 -2.6143598430 8.3612181993
Zn 1.2182902100 3.9215397970 0.7547006760
Zn 1.2182902100 2.6143598690 3.0188027260
Zn 1.2182902100 1.3071799410 5.6407663386
Zn 1.2182902100 0.0000000130 8.3612141061
Zn 6.0914510490 1.3071799410 0.7547006760
Zn 6.0914510490 0.0000000130 3.0188027260
Zn 6.0914510490 -1.3071799150 5.6401099091
Zn 6.0914510490 -2.6143598430 8.3589080946
Zn 6.0914510490 3.9215397970 0.7547006760
Zn 6.0914510490 2.6143598690 3.0188027260
Zn 6.0914510490 1.3071799410 5.6401008524
Zn 6.0914510490 0.0000000130 8.3589079641
Zn 3.6548706290 -0.0000000130 1.5094013740
Zn 3.6548706290 -1.3071799410 3.7735034240
Zn 3.6548706290 -2.6143598690 6.0752295561
Zn 3.6548706290 -3.9215397970 8.4519091936
Zn 3.6548706290 2.6143598430 1.5094013740
Zn 3.6548706290 1.3071799150 3.7735034240
Zn 3.6548706290 -0.0000000130 6.0752314420
Zn 3.6548706290 -1.3071799410 8.4519160483
Zn 8.5280314680 -0.0000000130 1.5094013740
Zn 8.5280314680 -1.3071799410 3.7735034240
Zn 8.5280314680 -2.6143598690 6.0748752983
Zn 8.5280314680 -3.9215397970 8.4491208901
Zn 8.5280314680 2.6143598430 1.5094013740
Zn 8.5280314680 1.3071799150 3.7735034240
Zn 8.5280314680 -0.0000000130 6.0748777118
Zn 8.5280314680 -1.3071799410 8.4491156784
32
Frame from Quantum Espresso Output
Zn 1.2182902100 1.3071799410 0.7547006760
Zn 1.2182902100 0.0000000130 3.0188027260
Zn 1.2182902100 -1.3071799150 5.6343314202
Zn 1.2182902100 -2.6143598430 8.3447582274
Zn 1.2182902100 3.9215397970 0.7547006760
Zn 1.2182902100 2.6143598690 3.0188027260
Zn 1.2182902100 1.3071799410 5.6343406371
Zn 1.2182902100 0.0000000130 8.3447542917
Zn 6.0914510490 1.3071799410 0.7547006760
Zn 6.0914510490 0.0000000130 3.0188027260
Zn 6.0914510490 -1.3071799150 5.6337593293
Zn 6.0914510490 -2.6143598430 8.3424970839
Zn 6.0914510490 3.9215397970 0.7547006760
Zn 6.0914510490 2.6143598690 3.0188027260
Zn 6.0914510490 1.3071799410 5.6337506257
Zn 6.0914510490 0.0000000130 8.3424969519
Zn 3.6548706290 -0.0000000130 1.5094013740
Zn 3.6548706290 -1.3071799410 3.7735034240
Zn 3.6548706290 -2.6143598690 6.0732229323
Zn 3.6548706290 -3.9215397970 8.4501316756
Zn 3.6548706290 2.6143598430 1.5094013740
Zn 3.6548706290 1.3071799150 3.7735034240
Zn 3.6548706290 -0.0000000130 6.0732246485
Zn 3.6548706290 -1.3071799410 8.4501380636
Zn 8.5280314680 -0.0000000130 1.5094013740
Zn 8.5280314680 -1.3071799410 3.7735034240
Zn 8.5280314680 -2.6143598690 6.0725846114
Zn 8.5280314680 -3.9215397970 8.4475725092
Zn 8.5280314680 2.6143598430 1.5094013740
Zn 8.5280314680 1.3071799150 3.7735034240
Zn 8.5280314680 -0.0000000130 6.0725868052
Zn 8.5280314680 -1.3071799410 8.4475676554
32
Frame from Quantum Espresso Output
Zn 1.2182902100 1.3071799410 0.7547006760
Zn 1.2182902100 0.0000000130 3.0188027260
Zn 1.2182902100 -1.3071799150 5.6284323056
Zn 1.2182902100 -2.6143598430 8.3266522585
Zn 1.2182902100 3.9215397970 0.7547006760
Zn 1.2182902100 2.6143598690 3.0188027260
Zn 1.2182902100 1.3071799410 5.6284408923
Zn 1.2182902100 0.0000000130 8.3266485777
Zn 6.0914510490 1.3071799410 0.7547006760
Zn 6.0914510490 0.0000000130 3.0188027260
Zn 6.0914510490 -1.3071799150 5.6278930384
Zn 6.0914510490 -2.6143598430 8.3244972543
Zn 6.0914510490 3.9215397970 0.7547006760
Zn 6.0914510490 2.6143598690 3.0188027260
Zn 6.0914510490 1.3071799410 5.6278849204
Zn 6.0914510490 0.0000000130 8.3244971200
Zn 3.6548706290 -0.0000000130 1.5094013740
Zn 3.6548706290 -1.3071799410 3.7735034240
Zn 3.6548706290 -2.6143598690 6.0701439354
Zn 3.6548706290 -3.9215397970 8.4493141916
Zn 3.6548706290 2.6143598430 1.5094013740
Zn 3.6548706290 1.3071799150 3.7735034240
Zn 3.6548706290 -0.0000000130 6.0701453365
Zn 3.6548706290 -1.3071799410 8.4493197441
Zn 8.5280314680 -0.0000000130 1.5094013740
Zn 8.5280314680 -1.3071799410 3.7735034240
Zn 8.5280314680 -2.6143598690 6.0693871672
Zn 8.5280314680 -3.9215397970 8.4470725834
Zn 8.5280314680 2.6143598430 1.5094013740
Zn 8.5280314680 1.3071799150 3.7735034240
Zn 8.5280314680 -0.0000000130 6.0693889534
Zn 8.5280314680 -1.3071799410 8.4470683659
32
Frame from Quantum Espresso Output
Zn 1.2182902100 1.3071799410 0.7547006760
Zn 1.2182902100 0.0000000130 3.0188027260
Zn 1.2182902100 -1.3071799150 5.6287774982
Zn 1.2182902100 -2.6143598430 8.3208255292
Zn 1.2182902100 3.9215397970 0.7547006760
Zn 1.2182902100 2.6143598690 3.0188027260
Zn 1.2182902100 1.3071799410 5.6287855521
Zn 1.2182902100 0.0000000130 8.3208220522
Zn 6.0914510490 1.3071799410 0.7547006760
Zn 6.0914510490 0.0000000130 3.0188027260
Zn 6.0914510490 -1.3071799150 5.6282383424
Zn 6.0914510490 -2.6143598430 8.3187431887
Zn 6.0914510490 3.9215397970 0.7547006760
Zn 6.0914510490 2.6143598690 3.0188027260
Zn 6.0914510490 1.3071799410 5.6282307204
Zn 6.0914510490 0.0000000130 8.3187430485
Zn 3.6548706290 -0.0000000130 1.5094013740
Zn 3.6548706290 -1.3071799410 3.7735034240
Zn 3.6548706290 -2.6143598690 6.0691728742
Zn 3.6548706290 -3.9215397970 8.4504536910
Zn 3.6548706290 2.6143598430 1.5094013740
Zn 3.6548706290 1.3071799150 3.7735034240
Zn 3.6548706290 -0.0000000130 6.0691739592
Zn 3.6548706290 -1.3071799410 8.4504584658
Zn 8.5280314680 -0.0000000130 1.5094013740
Zn 8.5280314680 -1.3071799410 3.7735034240
Zn 8.5280314680 -2.6143598690 6.0683206398
Zn 8.5280314680 -3.9215397970 8.4484300164
Zn 8.5280314680 2.6143598430 1.5094013740
Zn 8.5280314680 1.3071799150 3.7735034240
Zn 8.5280314680 -0.0000000130 6.0683220169
Zn 8.5280314680 -1.3071799410 8.4484263964
32
Frame from Quantum Espresso Output
Zn 1.2182902100 1.3071799410 0.7547006760
Zn 1.2182902100 0.0000000130 3.0188027260
Zn 1.2182902100 -1.3071799150 5.6314603840
Zn 1.2182902100 -2.6143598430 8.3144161270
Zn 1.2182902100 3.9215397970 0.7547006760
Zn 1.2182902100 2.6143598690 3.0188027260
Zn 1.2182902100 1.3071799410 5.6314675619
Zn 1.2182902100 0.0000000130 8.3144129855
Zn 6.0914510490 1.3071799410 0.7547006760
Zn 6.0914510490 0.0000000130 3.0188027260
Zn 6.0914510490 -1.3071799150 5.6309246871
Zn 6.0914510490 -2.6143598430 8.3124415911
Zn 6.0914510490 3.9215397970 0.7547006760
Zn 6.0914510490 2.6143598690 3.0188027260
Zn 6.0914510490 1.3071799410 5.6309178837
Zn 6.0914510490 0.0000000130 8.3124414410
Zn 3.6548706290 -0.0000000130 1.5094013740
Zn 3.6548706290 -1.3071799410 3.7735034240
Zn 3.6548706290 -2.6143598690 6.0693089375
Zn 3.6548706290 -3.9215397970 8.4525762569
Zn 3.6548706290 2.6143598430 1.5094013740
Zn 3.6548706290 1.3071799150 3.7735034240
Zn 3.6548706290 -0.0000000130 6.0693094900
Zn 3.6548706290 -1.3071799410 8.4525797446
Zn 8.5280314680 -0.0000000130 1.5094013740
Zn 8.5280314680 -1.3071799410 3.7735034240
Zn 8.5280314680 -2.6143598690 6.0681428238
Zn 8.5280314680 -3.9215397970 8.4509262214
Zn 8.5280314680 2.6143598430 1.5094013740
Zn 8.5280314680 1.3071799150 3.7735034240
Zn 8.5280314680 -0.0000000130 6.0681435141
Zn 8.5280314680 -1.3071799410 8.4509235924
32
Frame from Quantum Espresso Output
Zn 1.2182902100 1.3071799410 0.7547006760
Zn 1.2182902100 0.0000000130 3.0188027260
Zn 1.2182902100 -1.3071799150 5.6410713724
Zn 1.2182902100 -2.6143598430 8.3104848722
Zn 1.2182902100 3.9215397970 0.7547006760
Zn 1.2182902100 2.6143598690 3.0188027260
Zn 1.2182902100 1.3071799410 5.6410768054
Zn 1.2182902100 0.0000000130 8.3104823981
Zn 6.0914510490 1.3071799410 0.7547006760
Zn 6.0914510490 0.0000000130 3.0188027260
Zn 6.0914510490 -1.3071799150 5.6405371628
Zn 6.0914510490 -2.6143598430 8.3087155895
Zn 6.0914510490 3.9215397970 0.7547006760
Zn 6.0914510490 2.6143598690 3.0188027260
Zn 6.0914510490 1.3071799410 5.6405319870
Zn 6.0914510490 0.0000000130 8.3087154209
Zn 3.6548706290 -0.0000000130 1.5094013740
Zn 3.6548706290 -1.3071799410 3.7735034240
Zn 3.6548706290 -2.6143598690 6.0696074316
Zn 3.6548706290 -3.9215397970 8.4589112012
Zn 3.6548706290 2.6143598430 1.5094013740
Zn 3.6548706290 1.3071799150 3.7735034240
Zn 3.6548706290 -0.0000000130 6.0696069617
Zn 3.6548706290 -1.3071799410 8.4589121336
Zn 8.5280314680 -0.0000000130 1.5094013740
Zn 8.5280314680 -1.3071799410 3.7735034240
Zn 8.5280314680 -2.6143598690 6.0679004962
Zn 8.5280314680 -3.9215397970 8.4579949422
Zn 8.5280314680 2.6143598430 1.5094013740
Zn 8.5280314680 1.3071799150 3.7735034240
Zn 8.5280314680 -0.0000000130 6.0678998671
Zn 8.5280314680 -1.3071799410 8.4579942725
32
Frame from Quantum Espresso Output
Zn 1.2182902100 1.3071799410 0.7547006760
Zn 1.2182902100 0.0000000130 3.0188027260
Zn 1.2182902100 -1.3071799150 5.6554925274
Zn 1.2182902100 -2.6143598430 8.3136556040
Zn 1.2182902100 3.9215397970 0.7547006760
Zn 1.2182902100 2.6143598690 3.0188027260
Zn 1.2182902100 1.3071799410 5.6554960410
Zn 1.2182902100 0.0000000130 8.3136538724
Zn 6.0914510490 1.3071799410 0.7547006760
Zn 6.0914510490 0.0000000130 3.0188027260
Zn 6.0914510490 -1.3071799150 5.6549379812
Zn 6.0914510490 -2.6143598430 8.3121041355
Zn 6.0914510490 3.9215397970 0.7547006760
Zn 6.0914510490 2.6143598690 3.0188027260
Zn 6.0914510490 1.3071799410 5.6549345962
Zn 6.0914510490 0.0000000130 8.3121039532
Zn 3.6548706290 -0.0000000130 1.5094013740
Zn 3.6548706290 -1.3071799410 3.7735034240
Zn 3.6548706290 -2.6143598690 6.0712229198
Zn 3.6548706290 -3.9215397970 8.4672919711
Zn 3.6548706290 2.6143598430 1.5094013740
Zn 3.6548706290 1.3071799150 3.7735034240
Zn 3.6548706290 -0.0000000130 6.0712214190
Zn 3.6548706290 -1.3071799410 8.4672901876
Zn 8.5280314680 -0.0000000130 1.5094013740
Zn 8.5280314680 -1.3071799410 3.7735034240
Zn 8.5280314680 -2.6143598690 6.0690781049
Zn 8.5280314680 -3.9215397970 8.4670170218
Zn 8.5280314680 2.6143598430 1.5094013740
Zn 8.5280314680 1.3071799150 3.7735034240
Zn 8.5280314680 -0.0000000130 6.0690761463
Zn 8.5280314680 -1.3071799410 8.4670184360
32
Frame from Quantum Espresso Output
Zn 1.2182902100 1.3071799410 0.7547006760
Zn 1.2182902100 0.0000000130 3.0188027260
Zn 1.2182902100 -1.3071799150 5.6614701108
Zn 1.2182902100 -2.6143598430 8.3178915912
Zn 1.2182902100 3.9215397970 0.7547006760
Zn 1.2182902100 2.6143598690 3.0188027260
Zn 1.2182902100 1.3071799410 5.6614730203
Zn 1.2182902100 0.0000000130 8.3178901058
Zn 6.0914510490 1.3071799410 0.7547006760
Zn 6.0914510490 0.0000000130 3.0188027260
Zn 6.0914510490 -1.3071799150 5.6608998195
Zn 6.0914510490 -2.6143598430 8.3164120016
Zn 6.0914510490 3.9215397970 0.7547006760
Zn 6.0914510490 2.6143598690 3.0188027260
Zn 6.0914510490 1.3071799410 5.6608970002
Zn 6.0914510490 0.0000000130 8.3164118244
Zn 3.6548706290 -0.0000000130 1.5094013740
Zn 3.6548706290 -1.3071799410 3.7735034240
Zn 3.6548706290 -2.6143598690 6.0724492556
Zn 3.6548706290 -3.9215397970 8.4704042591
Zn 3.6548706290 2.6143598430 1.5094013740
Zn 3.6548706290 1.3071799150 3.7735034240
Zn 3.6548706290 -0.0000000130 6.0724475759
Zn 3.6548706290 -1.3071799410 8.4704017889
Zn 8.5280314680 -0.0000000130 1.5094013740
Zn 8.5280314680 -1.3071799410 3.7735034240
Zn 8.5280314680 -2.6143598690 6.0703598157
Zn 8.5280314680 -3.9215397970 8.4702534572
Zn 8.5280314680 2.6143598430 1.5094013740
Zn 8.5280314680 1.3071799150 3.7735034240
Zn 8.5280314680 -0.0000000130 6.0703576317
Zn 8.5280314680 -1.3071799410 8.4702553981
32
Frame from Quantum Espresso Output
Zn 1.2182902100 1.3071799410 0.7547006760
Zn 1.2182902100 0.0000000130 3.0188027260
Zn 1.2182902100 -1.3071799150 5.6635843964
Zn 1.2182902100 -2.6143598430 8.3200050611
Zn 1.2182902100 3.9215397970 0.7547006760
Zn 1.2182902100 2.6143598690 3.0188027260
Zn 1.2182902100 1.3071799410 5.6635870959
Zn 1.2182902100 0.0000000130 8.3200036769
Zn 6.0914510490 1.3071799410 0.7547006760
Zn 6.0914510490 0.0000000130 3.0188027260
Zn 6.0914510490 -1.3071799150 5.6630043427
Zn 6.0914510490 -2.6143598430 8.3185604215
Zn 6.0914510490 3.9215397970 0.7547006760
Zn 6.0914510490 2.6143598690 3.0188027260
Zn 6.0914510490 1.3071799410 5.6630017222
Zn 6.0914510490 0.0000000130 8.3185602580
Zn 3.6548706290 -0.0000000130 1.5094013740
Zn 3.6548706290 -1.3071799410 3.7735034240
Zn 3.6548706290 -2.6143598690 6.0733719239
Zn 3.6548706290 -3.9215397970 8.4713818498
Zn 3.6548706290 2.6143598430 1.5094013740
Zn 3.6548706290 1.3071799150 3.7735034240
Zn 3.6548706290 -0.0000000130 6.0733703385
Zn 3.6548706290 -1.3071799410 8.4713793320
Zn 8.5280314680 -0.0000000130 1.5094013740
Zn 8.5280314680 -1.3071799410 3.7735034240
Zn 8.5280314680 -2.6143598690 6.0714703104
Zn 8.5280314680 -3.9215397970 8.4711646246
Zn 8.5280314680 2.6143598430 1.5094013740
Zn 8.5280314680 1.3071799150 3.7735034240
Zn 8.5280314680 -0.0000000130 6.0714682510
Zn 8.5280314680 -1.3071799410 8.4711666005
32
Frame from Quantum Espresso Output
Zn 1.2182902100 1.3071799410 0.7547006760
Zn 1.2182902100 0.0000000130 3.0188027260
Zn 1.2182902100 -1.3071799150 5.6635843964
Zn 1.2182902100 -2.6143598430 8.3200050611
Zn 1.2182902100 3.9215397970 0.7547006760
Zn 1.2182902100 2.6143598690 3.0188027260
Zn 1.2182902100 1.3071799410 5.6635870959
Zn 1.2182902100 0.0000000130 8.3200036769
Zn 6.0914510490 1.3071799410 0.7547006760
Zn 6.0914510490 0.0000000130 3.0188027260
Zn 6.0914510490 -1.3071799150 5.6630043427
Zn 6.0914510490 -2.6143598430 8.3185604215
Zn 6.0914510490 3.9215397970 0.7547006760
Zn 6.0914510490 2.6143598690 3.0188027260
Zn 6.0914510490 1.3071799410 5.6630017222
Zn 6.0914510490 0.0000000130 8.3185602580
Zn 3.6548706290 -0.0000000130 1.5094013740
Zn 3.6548706290 -1.3071799410 3.7735034240
Zn 3.6548706290 -2.6143598690 6.0733719239
Zn 3.6548706290 -3.9215397970 8.4713818498
Zn 3.6548706290 2.6143598430 1.5094013740
Zn 3.6548706290 1.3071799150 3.7735034240
Zn 3.6548706290 -0.0000000130 6.0733703385
Zn 3.6548706290 -1.3071799410 8.4713793320
Zn 8.5280314680 -0.0000000130 1.5094013740
Zn 8.5280314680 -1.3071799410 3.7735034240
Zn 8.5280314680 -2.6143598690 6.0714703104
Zn 8.5280314680 -3.9215397970 8.4711646246
Zn 8.5280314680 2.6143598430 1.5094013740
Zn 8.5280314680 1.3071799150 3.7735034240
Zn 8.5280314680 -0.0000000130 6.0714682510
Zn 8.5280314680 -1.3071799410 8.4711666005
