32
Frame from Quantum Espresso Output
Zn -1.0735556570 1.0841422360 1.1977635690
Zn -5.3677776710 0.0395003420 3.2510724040
Zn -9.6619996840 -1.0051415520 5.3076400914
Zn -13.9562216980 -2.0497834460 7.3665297972
Zn -1.6915203730 3.6244172340 1.1977635690
Zn -5.9857423860 2.5797753400 3.2510724040
Zn -10.2799644000 1.5351334460 5.3076406443
Zn -14.5741864140 0.4904915520 7.3665297364
Zn 4.4565957100 1.0841422360 1.1977635690
Zn 0.1623736960 0.0395003420 3.2510724040
Zn -4.1318483170 -1.0051415520 5.3082464450
Zn -8.4260703310 -2.0497834460 7.3665493947
Zn 3.8386309950 3.6244172340 1.1977635690
Zn -0.4555910190 2.5797753400 3.2510724040
Zn -4.7498130330 1.5351334460 5.3082465001
Zn -9.0440350470 0.4904915520 7.3665496892
Zn 1.6915202950 0.4114908680 0.8555452660
Zn -2.6027017190 -0.6331510260 2.9088541010
Zn -6.8969237320 -1.6777929200 4.9580563014
Zn -11.1911457460 -2.7224348140 7.0255425889
Zn 1.0735555790 2.9517658660 0.8555452660
Zn -3.2206664340 1.9071239720 2.9088541010
Zn -7.5148884480 0.8624820780 4.9580565207
Zn -11.8091104620 -0.1821598160 7.0255427585
Zn 7.2216716620 0.4114908680 0.8555452660
Zn 2.9274496480 -0.6331510260 2.9088541010
Zn -1.3667723650 -1.6777929200 4.9582207027
Zn -5.6609943790 -2.7224348140 7.0256898414
Zn 6.6037069470 2.9517658660 0.8555452660
Zn 2.3094849330 1.9071239720 2.9088541010
Zn -1.9847370810 0.8624820780 4.9582208271
Zn -6.2789590950 -0.1821598160 7.0256895665
32
Frame from Quantum Espresso Output
Zn -1.0735556570 1.0841422360 1.1977635690
Zn -5.3677776710 0.0395003420 3.2510724040
Zn -9.6619996840 -1.0051415520 5.3119284161
Zn -13.9562216980 -2.0497834460 7.3765503512
Zn -1.6915203730 3.6244172340 1.1977635690
Zn -5.9857423860 2.5797753400 3.2510724040
Zn -10.2799644000 1.5351334460 5.3119291447
Zn -14.5741864140 0.4904915520 7.3765502808
Zn 4.4565957100 1.0841422360 1.1977635690
Zn 0.1623736960 0.0395003420 3.2510724040
Zn -4.1318483170 -1.0051415520 5.3126709032
Zn -8.4260703310 -2.0497834460 7.3764783552
Zn 3.8386309950 3.6244172340 1.1977635690
Zn -0.4555910190 2.5797753400 3.2510724040
Zn -4.7498130330 1.5351334460 5.3126708994
Zn -9.0440350470 0.4904915520 7.3764787246
Zn 1.6915202950 0.4114908680 0.8555452660
Zn -2.6027017190 -0.6331510260 2.9088541010
Zn -6.8969237320 -1.6777929200 4.9543841074
Zn -11.1911457460 -2.7224348140 7.0367107299
Zn 1.0735555790 2.9517658660 0.8555452660
Zn -3.2206664340 1.9071239720 2.9088541010
Zn -7.5148884480 0.8624820780 4.9543844058
Zn -11.8091104620 -0.1821598160 7.0367109585
Zn 7.2216716620 0.4114908680 0.8555452660
Zn 2.9274496480 -0.6331510260 2.9088541010
Zn -1.3667723650 -1.6777929200 4.9545340321
Zn -5.6609943790 -2.7224348140 7.0369297178
Zn 6.6037069470 2.9517658660 0.8555452660
Zn 2.3094849330 1.9071239720 2.9088541010
Zn -1.9847370810 0.8624820780 4.9545341892
Zn -6.2789590950 -0.1821598160 7.0369293461
32
Frame from Quantum Espresso Output
Zn -1.0735556570 1.0841422360 1.1977635690
Zn -5.3677776710 0.0395003420 3.2510724040
Zn -9.6619996840 -1.0051415520 5.3185573505
Zn -13.9562216980 -2.0497834460 7.3917163459
Zn -1.6915203730 3.6244172340 1.1977635690
Zn -5.9857423860 2.5797753400 3.2510724040
Zn -10.2799644000 1.5351334460 5.3185582933
Zn -14.5741864140 0.4904915520 7.3917162642
Zn 4.4565957100 1.0841422360 1.1977635690
Zn 0.1623736960 0.0395003420 3.2510724040
Zn -4.1318483170 -1.0051415520 5.3202396244
Zn -8.4260703310 -2.0497834460 7.3916471343
Zn 3.8386309950 3.6244172340 1.1977635690
Zn -0.4555910190 2.5797753400 3.2510724040
Zn -4.7498130330 1.5351334460 5.3202396938
Zn -9.0440350470 0.4904915520 7.3916476417
Zn 1.6915202950 0.4114908680 0.8555452660
Zn -2.6027017190 -0.6331510260 2.9088541010
Zn -6.8969237320 -1.6777929200 4.9497754149
Zn -11.1911457460 -2.7224348140 7.0533523984
Zn 1.0735555790 2.9517658660 0.8555452660
Zn -3.2206664340 1.9071239720 2.9088541010
Zn -7.5148884480 0.8624820780 4.9497758146
Zn -11.8091104620 -0.1821598160 7.0533527082
Zn 7.2216716620 0.4114908680 0.8555452660
Zn 2.9274496480 -0.6331510260 2.9088541010
Zn -1.3667723650 -1.6777929200 4.9503015996
Zn -5.6609943790 -2.7224348140 7.0537895324
Zn 6.6037069470 2.9517658660 0.8555452660
Zn 2.3094849330 1.9071239720 2.9088541010
Zn -1.9847370810 0.8624820780 4.9503017841
Zn -6.2789590950 -0.1821598160 7.0537890282
32
Frame from Quantum Espresso Output
Zn -1.0735556570 1.0841422360 1.1977635690
Zn -5.3677776710 0.0395003420 3.2510724040
Zn -9.6619996840 -1.0051415520 5.3298016206
Zn -13.9562216980 -2.0497834460 7.4148494483
Zn -1.6915203730 3.6244172340 1.1977635690
Zn -5.9857423860 2.5797753400 3.2510724040
Zn -10.2799644000 1.5351334460 5.3298029267
Zn -14.5741864140 0.4904915520 7.4148493268
Zn 4.4565957100 1.0841422360 1.1977635690
Zn 0.1623736960 0.0395003420 3.2510724040
Zn -4.1318483170 -1.0051415520 5.3320090960
Zn -8.4260703310 -2.0497834460 7.4148448192
Zn 3.8386309950 3.6244172340 1.1977635690
Zn -0.4555910190 2.5797753400 3.2510724040
Zn -4.7498130330 1.5351334460 5.3320092553
Zn -9.0440350470 0.4904915520 7.4148455488
Zn 1.6915202950 0.4114908680 0.8555452660
Zn -2.6027017190 -0.6331510260 2.9088541010
Zn -6.8969237320 -1.6777929200 4.9445925833
Zn -11.1911457460 -2.7224348140 7.0785976524
Zn 1.0735555790 2.9517658660 0.8555452660
Zn -3.2206664340 1.9071239720 2.9088541010
Zn -7.5148884480 0.8624820780 4.9445931315
Zn -11.8091104620 -0.1821598160 7.0785980915
Zn 7.2216716620 0.4114908680 0.8555452660
Zn 2.9274496480 -0.6331510260 2.9088541010
Zn -1.3667723650 -1.6777929200 4.9453075354
Zn -5.6609943790 -2.7224348140 7.0790792543
Zn 6.6037069470 2.9517658660 0.8555452660
Zn 2.3094849330 1.9071239720 2.9088541010
Zn -1.9847370810 0.8624820780 4.9453077843
Zn -6.2789590950 -0.1821598160 7.0790785331
32
Frame from Quantum Espresso Output
Zn -1.0735556570 1.0841422360 1.1977635690
Zn -5.3677776710 0.0395003420 3.2510724040
Zn -9.6619996840 -1.0051415520 5.3482102729
Zn -13.9562216980 -2.0497834460 7.4500791216
Zn -1.6915203730 3.6244172340 1.1977635690
Zn -5.9857423860 2.5797753400 3.2510724040
Zn -10.2799644000 1.5351334460 5.3482121415
Zn -14.5741864140 0.4904915520 7.4500789356
Zn 4.4565957100 1.0841422360 1.1977635690
Zn 0.1623736960 0.0395003420 3.2510724040
Zn -4.1318483170 -1.0051415520 5.3508879826
Zn -8.4260703310 -2.0497834460 7.4499884485
Zn 3.8386309950 3.6244172340 1.1977635690
Zn -0.4555910190 2.5797753400 3.2510724040
Zn -4.7498130330 1.5351334460 5.3508882736
Zn -9.0440350470 0.4904915520 7.4499895458
Zn 1.6915202950 0.4114908680 0.8555452660
Zn -2.6027017190 -0.6331510260 2.9088541010
Zn -6.8969237320 -1.6777929200 4.9395267597
Zn -11.1911457460 -2.7224348140 7.1164463403
Zn 1.0735555790 2.9517658660 0.8555452660
Zn -3.2206664340 1.9071239720 2.9088541010
Zn -7.5148884480 0.8624820780 4.9395275384
Zn -11.8091104620 -0.1821598160 7.1164469944
Zn 7.2216716620 0.4114908680 0.8555452660
Zn 2.9274496480 -0.6331510260 2.9088541010
Zn -1.3667723650 -1.6777929200 4.9404846489
Zn -5.6609943790 -2.7224348140 7.1170138371
Zn 6.6037069470 2.9517658660 0.8555452660
Zn 2.3094849330 1.9071239720 2.9088541010
Zn -1.9847370810 0.8624820780 4.9404850033
Zn -6.2789590950 -0.1821598160 7.1170127739
32
Frame from Quantum Espresso Output
Zn -1.0735556570 1.0841422360 1.1977635690
Zn -5.3677776710 0.0395003420 3.2510724040
Zn -9.6619996840 -1.0051415520 5.3777032465
Zn -13.9562216980 -2.0497834460 7.5035100227
Zn -1.6915203730 3.6244172340 1.1977635690
Zn -5.9857423860 2.5797753400 3.2510724040
Zn -10.2799644000 1.5351334460 5.3777059728
Zn -14.5741864140 0.4904915520 7.5035097381
Zn 4.4565957100 1.0841422360 1.1977635690
Zn 0.1623736960 0.0395003420 3.2510724040
Zn -4.1318483170 -1.0051415520 5.3813661426
Zn -8.4260703310 -2.0497834460 7.5033574362
Zn 3.8386309950 3.6244172340 1.1977635690
Zn -0.4555910190 2.5797753400 3.2510724040
Zn -4.7498130330 1.5351334460 5.3813666135
Zn -9.0440350470 0.4904915520 7.5033590955
Zn 1.6915202950 0.4114908680 0.8555452660
Zn -2.6027017190 -0.6331510260 2.9088541010
Zn -6.8969237320 -1.6777929200 4.9359308823
Zn -11.1911457460 -2.7224348140 7.1731961072
Zn 1.0735555790 2.9517658660 0.8555452660
Zn -3.2206664340 1.9071239720 2.9088541010
Zn -7.5148884480 0.8624820780 4.9359320080
Zn -11.8091104620 -0.1821598160 7.1731970999
Zn 7.2216716620 0.4114908680 0.8555452660
Zn 2.9274496480 -0.6331510260 2.9088541010
Zn -1.3667723650 -1.6777929200 4.9374574665
Zn -5.6609943790 -2.7224348140 7.1739157114
Zn 6.6037069470 2.9517658660 0.8555452660
Zn 2.3094849330 1.9071239720 2.9088541010
Zn -1.9847370810 0.8624820780 4.9374579840
Zn -6.2789590950 -0.1821598160 7.1739141112
32
Frame from Quantum Espresso Output
Zn -1.0735556570 1.0841422360 1.1977635690
Zn -5.3677776710 0.0395003420 3.2510724040
Zn -9.6619996840 -1.0051415520 5.4249507725
Zn -13.9562216980 -2.0497834460 7.5850686619
Zn -1.6915203730 3.6244172340 1.1977635690
Zn -5.9857423860 2.5797753400 3.2510724040
Zn -10.2799644000 1.5351334460 5.4249547886
Zn -14.5741864140 0.4904915520 7.5850682188
Zn 4.4565957100 1.0841422360 1.1977635690
Zn 0.1623736960 0.0395003420 3.2510724040
Zn -4.1318483170 -1.0051415520 5.4301484042
Zn -8.4260703310 -2.0497834460 7.5845165956
Zn 3.8386309950 3.6244172340 1.1977635690
Zn -0.4555910190 2.5797753400 3.2510724040
Zn -4.7498130330 1.5351334460 5.4301491364
Zn -9.0440350470 0.4904915520 7.5845191225
Zn 1.6915202950 0.4114908680 0.8555452660
Zn -2.6027017190 -0.6331510260 2.9088541010
Zn -6.8969237320 -1.6777929200 4.9376887436
Zn -11.1911457460 -2.7224348140 7.2583537738
Zn 1.0735555790 2.9517658660 0.8555452660
Zn -3.2206664340 1.9071239720 2.9088541010
Zn -7.5148884480 0.8624820780 4.9376903819
Zn -11.8091104620 -0.1821598160 7.2583553166
Zn 7.2216716620 0.4114908680 0.8555452660
Zn 2.9274496480 -0.6331510260 2.9088541010
Zn -1.3667723650 -1.6777929200 4.9399259971
Zn -5.6609943790 -2.7224348140 7.2592685227
Zn 6.6037069470 2.9517658660 0.8555452660
Zn 2.3094849330 1.9071239720 2.9088541010
Zn -1.9847370810 0.8624820780 4.9399267652
Zn -6.2789590950 -0.1821598160 7.2592660589
32
Frame from Quantum Espresso Output
Zn -1.0735556570 1.0841422360 1.1977635690
Zn -5.3677776710 0.0395003420 3.2510724040
Zn -9.6619996840 -1.0051415520 5.4584182872
Zn -13.9562216980 -2.0497834460 7.6369944279
Zn -1.6915203730 3.6244172340 1.1977635690
Zn -5.9857423860 2.5797753400 3.2510724040
Zn -10.2799644000 1.5351334460 5.4584230700
Zn -14.5741864140 0.4904915520 7.6369939001
Zn 4.4565957100 1.0841422360 1.1977635690
Zn 0.1623736960 0.0395003420 3.2510724040
Zn -4.1318483170 -1.0051415520 5.4645915265
Zn -8.4260703310 -2.0497834460 7.6359323182
Zn 3.8386309950 3.6244172340 1.1977635690
Zn -0.4555910190 2.5797753400 3.2510724040
Zn -4.7498130330 1.5351334460 5.4645924078
Zn -9.0440350470 0.4904915520 7.6359354080
Zn 1.6915202950 0.4114908680 0.8555452660
Zn -2.6027017190 -0.6331510260 2.9088541010
Zn -6.8969237320 -1.6777929200 4.9478504467
Zn -11.1911457460 -2.7224348140 7.3111070377
Zn 1.0735555790 2.9517658660 0.8555452660
Zn -3.2206664340 1.9071239720 2.9088541010
Zn -7.5148884480 0.8624820780 4.9478523855
Zn -11.8091104620 -0.1821598160 7.3111089707
Zn 7.2216716620 0.4114908680 0.8555452660
Zn 2.9274496480 -0.6331510260 2.9088541010
Zn -1.3667723650 -1.6777929200 4.9503305174
Zn -5.6609943790 -2.7224348140 7.3122449138
Zn 6.6037069470 2.9517658660 0.8555452660
Zn 2.3094849330 1.9071239720 2.9088541010
Zn -1.9847370810 0.8624820780 4.9503314292
Zn -6.2789590950 -0.1821598160 7.3122418533
32
Frame from Quantum Espresso Output
Zn -1.0735556570 1.0841422360 1.1977635690
Zn -5.3677776710 0.0395003420 3.2510724040
Zn -9.6619996840 -1.0051415520 5.4968993873
Zn -13.9562216980 -2.0497834460 7.6883730770
Zn -1.6915203730 3.6244172340 1.1977635690
Zn -5.9857423860 2.5797753400 3.2510724040
Zn -10.2799644000 1.5351334460 5.4969048792
Zn -14.5741864140 0.4904915520 7.6883725098
Zn 4.4565957100 1.0841422360 1.1977635690
Zn 0.1623736960 0.0395003420 3.2510724040
Zn -4.1318483170 -1.0051415520 5.5034682660
Zn -8.4260703310 -2.0497834460 7.6866131091
Zn 3.8386309950 3.6244172340 1.1977635690
Zn -0.4555910190 2.5797753400 3.2510724040
Zn -4.7498130330 1.5351334460 5.5034692160
Zn -9.0440350470 0.4904915520 7.6866167588
Zn 1.6915202950 0.4114908680 0.8555452660
Zn -2.6027017190 -0.6331510260 2.9088541010
Zn -6.8969237320 -1.6777929200 4.9708786065
Zn -11.1911457460 -2.7224348140 7.3613446511
Zn 1.0735555790 2.9517658660 0.8555452660
Zn -3.2206664340 1.9071239720 2.9088541010
Zn -7.5148884480 0.8624820780 4.9708807407
Zn -11.8091104620 -0.1821598160 7.3613470136
Zn 7.2216716620 0.4114908680 0.8555452660
Zn 2.9274496480 -0.6331510260 2.9088541010
Zn -1.3667723650 -1.6777929200 4.9731388802
Zn -5.6609943790 -2.7224348140 7.3627661242
Zn 6.6037069470 2.9517658660 0.8555452660
Zn 2.3094849330 1.9071239720 2.9088541010
Zn -1.9847370810 0.8624820780 4.9731399379
Zn -6.2789590950 -0.1821598160 7.3627624123
32
Frame from Quantum Espresso Output
Zn -1.0735556570 1.0841422360 1.1977635690
Zn -5.3677776710 0.0395003420 3.2510724040
Zn -9.6619996840 -1.0051415520 5.5460127632
Zn -13.9562216980 -2.0497834460 7.7448895793
Zn -1.6915203730 3.6244172340 1.1977635690
Zn -5.9857423860 2.5797753400 3.2510724040
Zn -10.2799644000 1.5351334460 5.5460188231
Zn -14.5741864140 0.4904915520 7.7448890237
Zn 4.4565957100 1.0841422360 1.1977635690
Zn 0.1623736960 0.0395003420 3.2510724040
Zn -4.1318483170 -1.0051415520 5.5530175899
Zn -8.4260703310 -2.0497834460 7.7418556462
Zn 3.8386309950 3.6244172340 1.1977635690
Zn -0.4555910190 2.5797753400 3.2510724040
Zn -4.7498130330 1.5351334460 5.5530185094
Zn -9.0440350470 0.4904915520 7.7418597607
Zn 1.6915202950 0.4114908680 0.8555452660
Zn -2.6027017190 -0.6331510260 2.9088541010
Zn -6.8969237320 -1.6777929200 5.0150613140
Zn -11.1911457460 -2.7224348140 7.4131855133
Zn 1.0735555790 2.9517658660 0.8555452660
Zn -3.2206664340 1.9071239720 2.9088541010
Zn -7.5148884480 0.8624820780 5.0150635985
Zn -11.8091104620 -0.1821598160 7.4131884108
Zn 7.2216716620 0.4114908680 0.8555452660
Zn 2.9274496480 -0.6331510260 2.9088541010
Zn -1.3667723650 -1.6777929200 5.0169965769
Zn -5.6609943790 -2.7224348140 7.4149627442
Zn 6.6037069470 2.9517658660 0.8555452660
Zn 2.3094849330 1.9071239720 2.9088541010
Zn -1.9847370810 0.8624820780 5.0169977356
Zn -6.2789590950 -0.1821598160 7.4149582038
32
Frame from Quantum Espresso Output
Zn -1.0735556570 1.0841422360 1.1977635690
Zn -5.3677776710 0.0395003420 3.2510724040
Zn -9.6619996840 -1.0051415520 5.5938788927
Zn -13.9562216980 -2.0497834460 7.7873131484
Zn -1.6915203730 3.6244172340 1.1977635690
Zn -5.9857423860 2.5797753400 3.2510724040
Zn -10.2799644000 1.5351334460 5.5938852162
Zn -14.5741864140 0.4904915520 7.7873127819
Zn 4.4565957100 1.0841422360 1.1977635690
Zn 0.1623736960 0.0395003420 3.2510724040
Zn -4.1318483170 -1.0051415520 5.6003540354
Zn -8.4260703310 -2.0497834460 7.7826866724
Zn 3.8386309950 3.6244172340 1.1977635690
Zn -0.4555910190 2.5797753400 3.2510724040
Zn -4.7498130330 1.5351334460 5.6003546809
Zn -9.0440350470 0.4904915520 7.7826910745
Zn 1.6915202950 0.4114908680 0.8555452660
Zn -2.6027017190 -0.6331510260 2.9088541010
Zn -6.8969237320 -1.6777929200 5.0794688139
Zn -11.1911457460 -2.7224348140 7.4460920181
Zn 1.0735555790 2.9517658660 0.8555452660
Zn -3.2206664340 1.9071239720 2.9088541010
Zn -7.5148884480 0.8624820780 5.0794707704
Zn -11.8091104620 -0.1821598160 7.4460953193
Zn 7.2216716620 0.4114908680 0.8555452660
Zn 2.9274496480 -0.6331510260 2.9088541010
Zn -1.3667723650 -1.6777929200 5.0801819245
Zn -5.6609943790 -2.7224348140 7.4482588963
Zn 6.6037069470 2.9517658660 0.8555452660
Zn 2.3094849330 1.9071239720 2.9088541010
Zn -1.9847370810 0.8624820780 5.0801828838
Zn -6.2789590950 -0.1821598160 7.4482536115
32
Frame from Quantum Espresso Output
Zn -1.0735556570 1.0841422360 1.1977635690
Zn -5.3677776710 0.0395003420 3.2510724040
Zn -9.6619996840 -1.0051415520 5.6050354319
Zn -13.9562216980 -2.0497834460 7.7882924992
Zn -1.6915203730 3.6244172340 1.1977635690
Zn -5.9857423860 2.5797753400 3.2510724040
Zn -10.2799644000 1.5351334460 5.6050412520
Zn -14.5741864140 0.4904915520 7.7882923007
Zn 4.4565957100 1.0841422360 1.1977635690
Zn 0.1623736960 0.0395003420 3.2510724040
Zn -4.1318483170 -1.0051415520 5.6109386953
Zn -8.4260703310 -2.0497834460 7.7828541955
Zn 3.8386309950 3.6244172340 1.1977635690
Zn -0.4555910190 2.5797753400 3.2510724040
Zn -4.7498130330 1.5351334460 5.6109391395
Zn -9.0440350470 0.4904915520 7.7828583834
Zn 1.6915202950 0.4114908680 0.8555452660
Zn -2.6027017190 -0.6331510260 2.9088541010
Zn -6.8969237320 -1.6777929200 5.1141003510
Zn -11.1911457460 -2.7224348140 7.4396051788
Zn 1.0735555790 2.9517658660 0.8555452660
Zn -3.2206664340 1.9071239720 2.9088541010
Zn -7.5148884480 0.8624820780 5.1141020140
Zn -11.8091104620 -0.1821598160 7.4396085682
Zn 7.2216716620 0.4114908680 0.8555452660
Zn 2.9274496480 -0.6331510260 2.9088541010
Zn -1.3667723650 -1.6777929200 5.1141652220
Zn -5.6609943790 -2.7224348140 7.4418647682
Zn 6.6037069470 2.9517658660 0.8555452660
Zn 2.3094849330 1.9071239720 2.9088541010
Zn -1.9847370810 0.8624820780 5.1141660331
Zn -6.2789590950 -0.1821598160 7.4418595276
32
Frame from Quantum Espresso Output
Zn -1.0735556570 1.0841422360 1.1977635690
Zn -5.3677776710 0.0395003420 3.2510724040
Zn -9.6619996840 -1.0051415520 5.5991054802
Zn -13.9562216980 -2.0497834460 7.7760994809
Zn -1.6915203730 3.6244172340 1.1977635690
Zn -5.9857423860 2.5797753400 3.2510724040
Zn -10.2799644000 1.5351334460 5.5991106547
Zn -14.5741864140 0.4904915520 7.7760993530
Zn 4.4565957100 1.0841422360 1.1977635690
Zn 0.1623736960 0.0395003420 3.2510724040
Zn -4.1318483170 -1.0051415520 5.6043354678
Zn -8.4260703310 -2.0497834460 7.7705044596
Zn 3.8386309950 3.6244172340 1.1977635690
Zn -0.4555910190 2.5797753400 3.2510724040
Zn -4.7498130330 1.5351334460 5.6043357951
Zn -9.0440350470 0.4904915520 7.7705082399
Zn 1.6915202950 0.4114908680 0.8555452660
Zn -2.6027017190 -0.6331510260 2.9088541010
Zn -6.8969237320 -1.6777929200 5.1255534391
Zn -11.1911457460 -2.7224348140 7.4230202016
Zn 1.0735555790 2.9517658660 0.8555452660
Zn -3.2206664340 1.9071239720 2.9088541010
Zn -7.5148884480 0.8624820780 5.1255548705
Zn -11.8091104620 -0.1821598160 7.4230234309
Zn 7.2216716620 0.4114908680 0.8555452660
Zn 2.9274496480 -0.6331510260 2.9088541010
Zn -1.3667723650 -1.6777929200 5.1252386946
Zn -5.6609943790 -2.7224348140 7.4252121258
Zn 6.6037069470 2.9517658660 0.8555452660
Zn 2.3094849330 1.9071239720 2.9088541010
Zn -1.9847370810 0.8624820780 5.1252393662
Zn -6.2789590950 -0.1821598160 7.4252071837
32
Frame from Quantum Espresso Output
Zn -1.0735556570 1.0841422360 1.1977635690
Zn -5.3677776710 0.0395003420 3.2510724040
Zn -9.6619996840 -1.0051415520 5.5932050723
Zn -13.9562216980 -2.0497834460 7.7711545708
Zn -1.6915203730 3.6244172340 1.1977635690
Zn -5.9857423860 2.5797753400 3.2510724040
Zn -10.2799644000 1.5351334460 5.5932098757
Zn -14.5741864140 0.4904915520 7.7711544552
Zn 4.4565957100 1.0841422360 1.1977635690
Zn 0.1623736960 0.0395003420 3.2510724040
Zn -4.1318483170 -1.0051415520 5.5982704577
Zn -8.4260703310 -2.0497834460 7.7656595593
Zn 3.8386309950 3.6244172340 1.1977635690
Zn -0.4555910190 2.5797753400 3.2510724040
Zn -4.7498130330 1.5351334460 5.5982707589
Zn -9.0440350470 0.4904915520 7.7656630826
Zn 1.6915202950 0.4114908680 0.8555452660
Zn -2.6027017190 -0.6331510260 2.9088541010
Zn -6.8969237320 -1.6777929200 5.1244764399
Zn -11.1911457460 -2.7224348140 7.4166979501
Zn 1.0735555790 2.9517658660 0.8555452660
Zn -3.2206664340 1.9071239720 2.9088541010
Zn -7.5148884480 0.8624820780 5.1244777810
Zn -11.8091104620 -0.1821598160 7.4167010411
Zn 7.2216716620 0.4114908680 0.8555452660
Zn 2.9274496480 -0.6331510260 2.9088541010
Zn -1.3667723650 -1.6777929200 5.1242081434
Zn -5.6609943790 -2.7224348140 7.4188210921
Zn 6.6037069470 2.9517658660 0.8555452660
Zn 2.3094849330 1.9071239720 2.9088541010
Zn -1.9847370810 0.8624820780 5.1242087483
Zn -6.2789590950 -0.1821598160 7.4188163817
32
Frame from Quantum Espresso Output
Zn -1.0735556570 1.0841422360 1.1977635690
Zn -5.3677776710 0.0395003420 3.2510724040
Zn -9.6619996840 -1.0051415520 5.5872744920
Zn -13.9562216980 -2.0497834460 7.7703101209
Zn -1.6915203730 3.6244172340 1.1977635690
Zn -5.9857423860 2.5797753400 3.2510724040
Zn -10.2799644000 1.5351334460 5.5872783752
Zn -14.5741864140 0.4904915520 7.7703100591
Zn 4.4565957100 1.0841422360 1.1977635690
Zn 0.1623736960 0.0395003420 3.2510724040
Zn -4.1318483170 -1.0051415520 5.5920009352
Zn -8.4260703310 -2.0497834460 7.7647940550
Zn 3.8386309950 3.6244172340 1.1977635690
Zn -0.4555910190 2.5797753400 3.2510724040
Zn -4.7498130330 1.5351334460 5.5920011522
Zn -9.0440350470 0.4904915520 7.7647969325
Zn 1.6915202950 0.4114908680 0.8555452660
Zn -2.6027017190 -0.6331510260 2.9088541010
Zn -6.8969237320 -1.6777929200 5.1314406745
Zn -11.1911457460 -2.7224348140 7.4105691651
Zn 1.0735555790 2.9517658660 0.8555452660
Zn -3.2206664340 1.9071239720 2.9088541010
Zn -7.5148884480 0.8624820780 5.1314417676
Zn -11.8091104620 -0.1821598160 7.4105719814
Zn 7.2216716620 0.4114908680 0.8555452660
Zn 2.9274496480 -0.6331510260 2.9088541010
Zn -1.3667723650 -1.6777929200 5.1312382804
Zn -5.6609943790 -2.7224348140 7.4125232296
Zn 6.6037069470 2.9517658660 0.8555452660
Zn 2.3094849330 1.9071239720 2.9088541010
Zn -1.9847370810 0.8624820780 5.1312386943
Zn -6.2789590950 -0.1821598160 7.4125189922
32
Frame from Quantum Espresso Output
Zn -1.0735556570 1.0841422360 1.1977635690
Zn -5.3677776710 0.0395003420 3.2510724040
Zn -9.6619996840 -1.0051415520 5.5812082537
Zn -13.9562216980 -2.0497834460 7.7746708522
Zn -1.6915203730 3.6244172340 1.1977635690
Zn -5.9857423860 2.5797753400 3.2510724040
Zn -10.2799644000 1.5351334460 5.5812112061
Zn -14.5741864140 0.4904915520 7.7746708208
Zn 4.4565957100 1.0841422360 1.1977635690
Zn 0.1623736960 0.0395003420 3.2510724040
Zn -4.1318483170 -1.0051415520 5.5857821002
Zn -8.4260703310 -2.0497834460 7.7692833168
Zn 3.8386309950 3.6244172340 1.1977635690
Zn -0.4555910190 2.5797753400 3.2510724040
Zn -4.7498130330 1.5351334460 5.5857822656
Zn -9.0440350470 0.4904915520 7.7692855245
Zn 1.6915202950 0.4114908680 0.8555452660
Zn -2.6027017190 -0.6331510260 2.9088541010
Zn -6.8969237320 -1.6777929200 5.1327507215
Zn -11.1911457460 -2.7224348140 7.4106103430
Zn 1.0735555790 2.9517658660 0.8555452660
Zn -3.2206664340 1.9071239720 2.9088541010
Zn -7.5148884480 0.8624820780 5.1327516052
Zn -11.8091104620 -0.1821598160 7.4106128374
Zn 7.2216716620 0.4114908680 0.8555452660
Zn 2.9274496480 -0.6331510260 2.9088541010
Zn -1.3667723650 -1.6777929200 5.1328322913
Zn -5.6609943790 -2.7224348140 7.4123667036
Zn 6.6037069470 2.9517658660 0.8555452660
Zn 2.3094849330 1.9071239720 2.9088541010
Zn -1.9847370810 0.8624820780 5.1328325228
Zn -6.2789590950 -0.1821598160 7.4123630057
32
Frame from Quantum Espresso Output
Zn -1.0735556570 1.0841422360 1.1977635690
Zn -5.3677776710 0.0395003420 3.2510724040
Zn -9.6619996840 -1.0051415520 5.5752564804
Zn -13.9562216980 -2.0497834460 7.7813431186
Zn -1.6915203730 3.6244172340 1.1977635690
Zn -5.9857423860 2.5797753400 3.2510724040
Zn -10.2799644000 1.5351334460 5.5752583781
Zn -14.5741864140 0.4904915520 7.7813431115
Zn 4.4565957100 1.0841422360 1.1977635690
Zn 0.1623736960 0.0395003420 3.2510724040
Zn -4.1318483170 -1.0051415520 5.5795999514
Zn -8.4260703310 -2.0497834460 7.7761240920
Zn 3.8386309950 3.6244172340 1.1977635690
Zn -0.4555910190 2.5797753400 3.2510724040
Zn -4.7498130330 1.5351334460 5.5796000688
Zn -9.0440350470 0.4904915520 7.7761255306
Zn 1.6915202950 0.4114908680 0.8555452660
Zn -2.6027017190 -0.6331510260 2.9088541010
Zn -6.8969237320 -1.6777929200 5.1337846413
Zn -11.1911457460 -2.7224348140 7.4127736771
Zn 1.0735555790 2.9517658660 0.8555452660
Zn -3.2206664340 1.9071239720 2.9088541010
Zn -7.5148884480 0.8624820780 5.1337852860
Zn -11.8091104620 -0.1821598160 7.4127757882
Zn 7.2216716620 0.4114908680 0.8555452660
Zn 2.9274496480 -0.6331510260 2.9088541010
Zn -1.3667723650 -1.6777929200 5.1341708861
Zn -5.6609943790 -2.7224348140 7.4142807611
Zn 6.6037069470 2.9517658660 0.8555452660
Zn 2.3094849330 1.9071239720 2.9088541010
Zn -1.9847370810 0.8624820780 5.1341709170
Zn -6.2789590950 -0.1821598160 7.4142776894
32
Frame from Quantum Espresso Output
Zn -1.0735556570 1.0841422360 1.1977635690
Zn -5.3677776710 0.0395003420 3.2510724040
Zn -9.6619996840 -1.0051415520 5.5739401178
Zn -13.9562216980 -2.0497834460 7.7839751420
Zn -1.6915203730 3.6244172340 1.1977635690
Zn -5.9857423860 2.5797753400 3.2510724040
Zn -10.2799644000 1.5351334460 5.5739416709
Zn -14.5741864140 0.4904915520 7.7839751401
Zn 4.4565957100 1.0841422360 1.1977635690
Zn 0.1623736960 0.0395003420 3.2510724040
Zn -4.1318483170 -1.0051415520 5.5782643783
Zn -8.4260703310 -2.0497834460 7.7788438206
Zn 3.8386309950 3.6244172340 1.1977635690
Zn -0.4555910190 2.5797753400 3.2510724040
Zn -4.7498130330 1.5351334460 5.5782644825
Zn -9.0440350470 0.4904915520 7.7788450047
Zn 1.6915202950 0.4114908680 0.8555452660
Zn -2.6027017190 -0.6331510260 2.9088541010
Zn -6.8969237320 -1.6777929200 5.1339814584
Zn -11.1911457460 -2.7224348140 7.4144171919
Zn 1.0735555790 2.9517658660 0.8555452660
Zn -3.2206664340 1.9071239720 2.9088541010
Zn -7.5148884480 0.8624820780 5.1339820230
Zn -11.8091104620 -0.1821598160 7.4144191526
Zn 7.2216716620 0.4114908680 0.8555452660
Zn 2.9274496480 -0.6331510260 2.9088541010
Zn -1.3667723650 -1.6777929200 5.1345216941
Zn -5.6609943790 -2.7224348140 7.4158144862
Zn 6.6037069470 2.9517658660 0.8555452660
Zn 2.3094849330 1.9071239720 2.9088541010
Zn -1.9847370810 0.8624820780 5.1345216663
Zn -6.2789590950 -0.1821598160 7.4158116526
32
Frame from Quantum Espresso Output
Zn -1.0735556570 1.0841422360 1.1977635690
Zn -5.3677776710 0.0395003420 3.2510724040
Zn -9.6619996840 -1.0051415520 5.5739401178
Zn -13.9562216980 -2.0497834460 7.7839751420
Zn -1.6915203730 3.6244172340 1.1977635690
Zn -5.9857423860 2.5797753400 3.2510724040
Zn -10.2799644000 1.5351334460 5.5739416709
Zn -14.5741864140 0.4904915520 7.7839751401
Zn 4.4565957100 1.0841422360 1.1977635690
Zn 0.1623736960 0.0395003420 3.2510724040
Zn -4.1318483170 -1.0051415520 5.5782643783
Zn -8.4260703310 -2.0497834460 7.7788438206
Zn 3.8386309950 3.6244172340 1.1977635690
Zn -0.4555910190 2.5797753400 3.2510724040
Zn -4.7498130330 1.5351334460 5.5782644825
Zn -9.0440350470 0.4904915520 7.7788450047
Zn 1.6915202950 0.4114908680 0.8555452660
Zn -2.6027017190 -0.6331510260 2.9088541010
Zn -6.8969237320 -1.6777929200 5.1339814584
Zn -11.1911457460 -2.7224348140 7.4144171919
Zn 1.0735555790 2.9517658660 0.8555452660
Zn -3.2206664340 1.9071239720 2.9088541010
Zn -7.5148884480 0.8624820780 5.1339820230
Zn -11.8091104620 -0.1821598160 7.4144191526
Zn 7.2216716620 0.4114908680 0.8555452660
Zn 2.9274496480 -0.6331510260 2.9088541010
Zn -1.3667723650 -1.6777929200 5.1345216941
Zn -5.6609943790 -2.7224348140 7.4158144862
Zn 6.6037069470 2.9517658660 0.8555452660
Zn 2.3094849330 1.9071239720 2.9088541010
Zn -1.9847370810 0.8624820780 5.1345216663
Zn -6.2789590950 -0.1821598160 7.4158116526
