63
Final Frame from Quantum Espresso Output
Zn 0.0000000000 1.5094010000 1.2182900000
Zn 5.2287200000 1.5094010000 1.2182900000
Zn 0.0011620809 1.5050166259 6.2721294628
Zn 5.2292701620 1.5059205152 6.2693055339
Zn -1.3071800000 3.7735030000 1.2182900000
Zn 3.9215400000 3.7735030000 1.2182900000
Zn -1.3058422101 3.7698844106 6.2635044477
Zn 3.9241620546 3.7701540437 6.2514058460
Zn -2.6143600000 6.0376050000 1.2182900000
Zn 2.6143600000 6.0376050000 1.2182900000
Zn -2.6133753640 6.0340452965 6.2717341787
Zn 2.6162869303 6.0343923505 6.2641167945
Zn -3.9215400000 8.3017080000 1.2182900000
Zn 1.3071800000 8.3017080000 1.2182900000
Zn -3.9209053749 8.2993909285 6.2741379211
Zn 1.3087044315 8.2971787653 6.2731098857
Zn 2.6143600000 1.5094010000 1.2182900000
Zn 7.8430800000 1.5094010000 1.2182900000
Zn 2.6158759581 1.5056450731 6.2742521962
Zn 7.8450897415 1.5058279252 6.2701977345
Zn 1.3071800000 3.7735030000 1.2182900000
Zn 6.5359000000 3.7735030000 1.2182900000
Zn 1.3077588056 3.7678327220 6.2023398311
Zn 6.5369156470 3.7702616978 6.2701168219
Zn 0.0000000000 6.0376050000 1.2182900000
Zn 5.2287200000 6.0376050000 1.2182900000
Zn 0.0012901048 6.0343175480 6.2652558605
Zn 5.2298607128 6.0343258879 6.2715819013
Zn -1.3071800000 8.3017080000 1.2182900000
Zn 3.9215400000 8.3017080000 1.2182900000
Zn -1.3050905178 8.2984684969 6.2732599756
Zn 3.9223381752 8.2974862840 6.2735395359
Zn 1.3075598094 0.7498909038 3.7393906932
Zn 6.5371537616 0.7520264265 3.7501700711
Zn -0.0025397575 3.0140232422 3.7354764420
Zn 5.2313209371 3.0163237850 3.7456543665
Zn -1.3080658155 5.2819538761 3.7454289496
Zn 3.9244138761 5.2825172264 3.7440341956
Zn -2.6149072992 7.5449747493 3.7498801940
Zn 2.6168916979 7.5472844468 3.7438488358
Zn 3.9231306250 0.7510537540 3.7429729659
Zn 9.1504862379 0.7506282213 3.7453585446
Zn 2.6180945532 3.0142731907 3.7356311708
Zn 7.8426411586 3.0159260523 3.7446524052
Zn 1.3083306451 5.2837545822 3.7391873203
Zn 6.5363244944 5.2824485875 3.7479739932
Zn -0.0001528485 7.5471378523 3.7442939875
Zn 5.2302496317 7.5452168359 3.7491721149
C 1.9177349734 4.1809097162 15.4262205193
C 1.8287259159 4.1458012047 14.0056594902
C 2.9935554632 4.1020501198 13.2144336499
C 0.5731566286 4.1434020921 13.3668641137
C 2.9066680850 4.0486971154 11.8321749158
C 0.4857106946 4.0890858809 11.9848704282
C 1.6505117307 4.0376822398 11.1894847704
N 1.9920549915 4.2019098479 16.5915467429
N 1.5630824336 3.9308614780 9.8195833973
H 0.6872786690 4.1777077939 9.3728779995
H 2.3835173571 4.1477107851 9.2644725958
H -0.3343027438 4.1870242750 13.9693477077
H 3.9690995347 4.1126914917 13.7002417223
H -0.4938492427 4.0839226571 11.5022643122
H 3.8185809094 4.0108485286 11.2325150459
