48
Frame from Quantum Espresso Output
Zn -1.0735560000 1.0841420000 1.1977640000
Zn -2.3094850000 6.1646920000 1.1977640000
Zn -5.2792303531 0.0542096452 3.6029345583
Zn -6.5154861148 5.1338961940 3.6025165422
Zn -9.3282353290 -0.9260132304 5.8217839527
Zn -10.5647676383 4.1542811281 5.8219308403
Zn -1.6915200000 3.6244170000 1.1977640000
Zn -2.9274500000 8.7049670000 1.1977640000
Zn -5.8972661000 2.5935421119 3.6029168039
Zn -7.1333373909 7.6750841475 3.6025518021
Zn -9.9465821954 1.6142204239 5.8215601833
Zn -11.1823978735 6.6947512963 5.8221327650
Zn 4.4565960000 1.0841420000 1.1977640000
Zn 3.2206660000 6.1646920000 1.1977640000
Zn 0.2534487895 0.0550366616 3.6033553883
Zn -0.9825106670 5.1342901028 3.6029666810
Zn -3.7999479669 -0.9263375524 5.8239870034
Zn -5.0359199832 4.1539034568 5.8241932493
Zn 3.8386310000 3.6244170000 1.1977640000
Zn 2.6027020000 8.7049670000 1.1977640000
Zn -0.3645166000 2.5944306286 3.6034323734
Zn -1.6005034431 7.6756533539 3.6029011015
Zn -4.4180434854 1.6136573067 5.8237387595
Zn -5.6538326088 6.6945223276 5.8244028849
Zn 1.6915200000 0.4114910000 0.8555450000
Zn 0.4555910000 5.4920410000 0.8555450000
Zn -2.5655820148 -0.6173578591 3.0396701430
Zn -3.8013564831 4.4618458343 3.0393303374
Zn -6.7415555543 -1.6400912853 5.2784937253
Zn -7.9780251949 3.4398970395 5.2784850295
Zn 1.0735560000 2.9517660000 0.8555450000
Zn -0.1623740000 8.0323160000 0.8555450000
Zn -3.1833978814 1.9220008149 3.0399395680
Zn -4.4194941443 7.0031140494 3.0390121566
Zn -7.3596567519 0.9000280918 5.2783047692
Zn -8.5958392681 5.9804426136 5.2786245940
Zn 7.2216720000 0.4114910000 0.8555450000
Zn 5.9857420000 5.4920410000 0.8555450000
Zn 2.9631822419 -0.6179269379 3.0378051800
Zn 1.7271615052 4.4617195906 3.0375751511
Zn -1.2100079174 -1.6395205042 5.2790985763
Zn -2.4460305690 3.4404066609 5.2791979804
Zn 6.6037070000 2.9517660000 0.8555450000
Zn 5.3677780000 8.0323160000 0.8555450000
Zn 2.3451844939 1.9217298209 3.0380413147
Zn 1.1092971577 7.0024952126 3.0373320834
Zn -1.8281649255 0.9003667087 5.2789657463
Zn -3.0637192303 5.9808404630 5.2792889887
48
Frame from Quantum Espresso Output
Zn -1.0735560000 1.0841420000 1.1977640000
Zn -2.3094850000 6.1646920000 1.1977640000
Zn -5.2781996826 0.0545329773 3.6031881754
Zn -6.5144334421 5.1340448630 3.6028069536
Zn -9.3278570750 -0.9258191548 5.8196248652
Zn -10.5643630947 4.1542210115 5.8197784779
Zn -1.6915200000 3.6244170000 1.1977640000
Zn -2.9274500000 8.7049670000 1.1977640000
Zn -5.8962427859 2.5937471437 3.6031740374
Zn -7.1322818896 7.6753640469 3.6028350437
Zn -9.9461838058 1.6142485645 5.8193904957
Zn -11.1820090634 6.6948258831 5.8199900407
Zn 4.4565960000 1.0841420000 1.1977640000
Zn 3.2206660000 6.1646920000 1.1977640000
Zn 0.2543557712 0.0553046513 3.6035836108
Zn -0.9816325375 5.1344551315 3.6032091460
Zn -3.7994172410 -0.9261276647 5.8217458941
Zn -5.0353861584 4.1538877568 5.8219263192
Zn 3.8386310000 3.6244170000 1.1977640000
Zn 2.6027020000 8.7049670000 1.1977640000
Zn -0.3636227364 2.5945521839 3.6036502399
Zn -1.5996045494 7.6759153837 3.6031542150
Zn -4.4175131114 1.6137565736 5.8214785431
Zn -5.6532828269 6.6946055804 5.8221555237
Zn 1.6915200000 0.4114910000 0.8555450000
Zn 0.4555910000 5.4920410000 0.8555450000
Zn -2.5657883340 -0.6173725369 3.0397133994
Zn -3.8016011461 4.4616669587 3.0393996383
Zn -6.7411178532 -1.6399064223 5.2764052361
Zn -7.9775717336 3.4398845304 5.2763822597
Zn 1.0735560000 2.9517660000 0.8555450000
Zn -0.1623740000 8.0323160000 0.8555450000
Zn -3.1836334483 1.9218913241 3.0399641061
Zn -4.4196998801 7.0030082760 3.0391080135
Zn -7.3592219132 0.9001496643 5.2762054854
Zn -8.5953841388 5.9804656223 5.2765370552
Zn 7.2216720000 0.4114910000 0.8555450000
Zn 5.9857420000 5.4920410000 0.8555450000
Zn 2.9629847181 -0.6179166783 3.0378886383
Zn 1.7269734571 4.4615022797 3.0376765185
Zn -1.2096463286 -1.6393865278 5.2769847900
Zn -2.4456943015 3.4403561448 5.2770851666
Zn 6.6037070000 2.9517660000 0.8555450000
Zn 5.3677780000 8.0323160000 0.8555450000
Zn 2.3449883018 1.9216075736 3.0381049549
Zn 1.1090955388 7.0024381344 3.0374506958
Zn -1.8278111668 0.9004716843 5.2768537097
Zn -3.0633894621 5.9808721407 5.2771706005
48
Frame from Quantum Espresso Output
Zn -1.0735560000 1.0841420000 1.1977640000
Zn -2.3094850000 6.1646920000 1.1977640000
Zn -5.2766834461 0.0551744699 3.6035183789
Zn -6.5128835249 5.1340963429 3.6032029362
Zn -9.3272754573 -0.9253581836 5.8164251428
Zn -10.5637306019 4.1539727086 5.8165893873
Zn -1.6915200000 3.6244170000 1.1977640000
Zn -2.9274500000 8.7049670000 1.1977640000
Zn -5.8947327483 2.5939078158 3.6035031409
Zn -7.1307298242 7.6759104801 3.6032275726
Zn -9.9455755745 1.6142798073 5.8161270687
Zn -11.1813984022 6.6949569813 5.8168580512
Zn 4.4565960000 1.0841420000 1.1977640000
Zn 3.2206660000 6.1646920000 1.1977640000
Zn 0.2556836114 0.0558678943 3.6038646021
Zn -0.9803407057 5.1345254118 3.6035240755
Zn -3.7985084315 -0.9256187271 5.8184551200
Zn -5.0344569194 4.1537290342 5.8185999738
Zn 3.8386310000 3.6244170000 1.1977640000
Zn 2.6027020000 8.7049670000 1.1977640000
Zn -0.3623126550 2.5945930165 3.6039107413
Zn -1.5982846980 7.6764332563 3.6034891788
Zn -4.4166005094 1.6139173073 5.8181101987
Zn -5.6523353074 6.6947772029 5.8189004087
Zn 1.6915200000 0.4114910000 0.8555450000
Zn 0.4555910000 5.4920410000 0.8555450000
Zn -2.5659292695 -0.6171423691 3.0395801372
Zn -3.8017924802 4.4612392074 3.0392971098
Zn -6.7406028159 -1.6395016852 5.2733361469
Zn -7.9770313055 3.4396621646 5.2732586574
Zn 1.0735560000 2.9517660000 0.8555450000
Zn -0.1623740000 8.0323160000 0.8555450000
Zn -3.1838133034 1.9217144186 3.0397954390
Zn -4.4198394278 7.0029551779 3.0390510096
Zn -7.3587062715 0.9003613222 5.2730560636
Zn -8.5948435947 5.9804023733 5.2734961185
Zn 7.2216720000 0.4114910000 0.8555450000
Zn 5.9857420000 5.4920410000 0.8555450000
Zn 2.9626589631 -0.6177030875 3.0378189485
Zn 1.7266592037 4.4609709372 3.0376227924
Zn -1.2090825541 -1.6390133069 5.2738505337
Zn -2.4451612947 3.4401153688 5.2739157299
Zn 6.6037070000 2.9517660000 0.8555450000
Zn 5.3677780000 8.0323160000 0.8555450000
Zn 2.3446620967 1.9213639251 3.0379988584
Zn 1.1087601268 7.0024037818 3.0374280419
Zn -1.8272528513 0.9006998834 5.2736542000
Zn -3.0628702815 5.9808573074 5.2740565251
48
Frame from Quantum Espresso Output
Zn -1.0735560000 1.0841420000 1.1977640000
Zn -2.3094850000 6.1646920000 1.1977640000
Zn -5.2744116634 0.0560109532 3.6038957342
Zn -6.5105769736 5.1342986047 3.6036792898
Zn -9.3263378846 -0.9247845099 5.8116376538
Zn -10.5627288484 4.1537416113 5.8118091175
Zn -1.6915200000 3.6244170000 1.1977640000
Zn -2.9274500000 8.7049670000 1.1977640000
Zn -5.8924771213 2.5942354368 3.6038803008
Zn -7.1284133386 7.6766412345 3.6036994000
Zn -9.9446085862 1.6143584752 5.8112821594
Zn -11.1804175197 6.6951532944 5.8121283714
Zn 4.4565960000 1.0841420000 1.1977640000
Zn 3.2206660000 6.1646920000 1.1977640000
Zn 0.2575933643 0.0565790541 3.6041772336
Zn -0.9784778594 5.1347199965 3.6038898269
Zn -3.7971292730 -0.9249758722 5.8134800710
Zn -5.0330491488 4.1536151509 5.8135769140
Zn 3.8386310000 3.6244170000 1.1977640000
Zn 2.6027020000 8.7049670000 1.1977640000
Zn -0.3604319879 2.5947419120 3.6041937717
Zn -1.5963800613 7.6770954845 3.6038843228
Zn -4.4152155371 1.6141646420 5.8130623649
Zn -5.6509033841 6.6950355260 5.8139442460
Zn 1.6915200000 0.4114910000 0.8555450000
Zn 0.4555910000 5.4920410000 0.8555450000
Zn -2.5661607855 -0.6169492743 3.0392858326
Zn -3.8020979606 4.4607350131 3.0390545966
Zn -6.7397629743 -1.6390111712 5.2686860798
Zn -7.9761659105 3.4394716685 5.2685549123
Zn 1.0735560000 2.9517660000 0.8555450000
Zn -0.1623740000 8.0323160000 0.8555450000
Zn -3.1841006247 1.9214778903 3.0394529753
Zn -4.4200738809 7.0028404361 3.0388757260
Zn -7.3578659773 0.9006410170 5.2683349002
Zn -8.5939764677 5.9803764098 5.2688692165
Zn 7.2216720000 0.4114910000 0.8555450000
Zn 5.9857420000 5.4920410000 0.8555450000
Zn 2.9623126427 -0.6175053069 3.0376331419
Zn 1.7263052325 4.4603645394 3.0374681039
Zn -1.2083162072 -1.6385929950 5.2691145722
Zn -2.4444281491 3.4398643066 5.2691488279
Zn 6.6037070000 2.9517660000 0.8555450000
Zn 5.3677780000 8.0323160000 0.8555450000
Zn 2.3442988105 1.9210718684 3.0377602928
Zn 1.1083953726 7.0023377861 3.0373254800
Zn -1.8264878612 0.9009732341 5.2688643498
Zn -3.0621593812 5.9808597440 5.2693327333
48
Frame from Quantum Espresso Output
Zn -1.0735560000 1.0841420000 1.1977640000
Zn -2.3094850000 6.1646920000 1.1977640000
Zn -5.2710257627 0.0573063325 3.6043322200
Zn -6.5071492361 5.1345582834 3.6042805844
Zn -9.3248485746 -0.9238669988 5.8045302104
Zn -10.5611528262 4.1533638959 5.8047084710
Zn -1.6915200000 3.6244170000 1.1977640000
Zn -2.9274500000 8.7049670000 1.1977640000
Zn -5.8891239180 2.5946819077 3.6043106268
Zn -7.1249593768 7.6777772046 3.6042999125
Zn -9.9430858024 1.6144937841 5.8040779905
Zn -11.1788639920 6.6954720735 5.8051119063
Zn 4.4565960000 1.0841420000 1.1977640000
Zn 3.2206660000 6.1646920000 1.1977640000
Zn 0.2603061897 0.0576509616 3.6045134661
Zn -0.9758444429 5.1349197093 3.6043276179
Zn -3.7949536232 -0.9239443234 5.8060508783
Zn -5.0308383804 4.1534199266 5.8060769662
Zn 3.8386310000 3.6244170000 1.1977640000
Zn 2.6027020000 8.7049670000 1.1977640000
Zn -0.3577729354 2.5949044689 3.6044841855
Zn -1.5936785997 7.6780975447 3.6043675951
Zn -4.4130437232 1.6145506012 5.8055178871
Zn -5.6486507393 6.6954557661 5.8065494863
Zn 1.6915200000 0.4114910000 0.8555450000
Zn 0.4555910000 5.4920410000 0.8555450000
Zn -2.5664749019 -0.6166042982 3.0386873026
Zn -3.8025349777 4.4599224210 3.0385403616
Zn -6.7384406382 -1.6382195215 5.2617224405
Zn -7.9748089492 3.4391510266 5.2615032755
Zn 1.0735560000 2.9517660000 0.8555450000
Zn -0.1623740000 8.0323160000 0.8555450000
Zn -3.1845075900 1.9211148143 3.0387738664
Zn -4.4204017118 7.0026914855 3.0384595733
Zn -7.3565346813 0.9010994346 5.2612506061
Zn -8.5926278375 5.9803348953 5.2619419000
Zn 7.2216720000 0.4114910000 0.8555450000
Zn 5.9857420000 5.4920410000 0.8555450000
Zn 2.9618893368 -0.6171299995 3.0372060613
Zn 1.7258537878 4.4594197508 3.0370925774
Zn -1.2072052639 -1.6379221915 5.2620094233
Zn -2.4433704572 3.4394397860 5.2619869891
Zn 6.6037070000 2.9517660000 0.8555450000
Zn 5.3677780000 8.0323160000 0.8555450000
Zn 2.3438439074 1.9206393004 3.0372494368
Zn 1.1079405822 7.0022659737 3.0370289589
Zn -1.8253719363 0.9013891219 5.2616661338
Zn -3.0611380488 5.9808247703 5.2622512276
48
Frame from Quantum Espresso Output
Zn -1.0735560000 1.0841420000 1.1977640000
Zn -2.3094850000 6.1646920000 1.1977640000
Zn -5.2659581050 0.0592004020 3.6048115074
Zn -6.5020404934 5.1350017577 3.6050131042
Zn -9.3224928722 -0.9225133968 5.7938880622
Zn -10.5586844171 4.1528537061 5.7940676052
Zn -1.6915200000 3.6244170000 1.1977640000
Zn -2.9274500000 8.7049670000 1.1977640000
Zn -5.8841180873 2.5953744311 3.6047742198
Zn -7.1197966069 7.6794550226 3.6050396795
Zn -9.9407006629 1.6147264696 5.7933197399
Zn -11.1764085437 6.6959735715 5.7945753574
Zn 4.4565960000 1.0841420000 1.1977640000
Zn 3.2206660000 6.1646920000 1.1977640000
Zn 0.2642509925 0.0591882561 3.6048222120
Zn -0.9720198559 5.1352255890 3.6048033266
Zn -3.7914585164 -0.9223853712 5.7949427916
Zn -5.0272996821 4.1532095463 5.7948662878
Zn 3.8386310000 3.6244170000 1.1977640000
Zn 2.6027020000 8.7049670000 1.1977640000
Zn -0.3539230175 2.5951640571 3.6047204141
Zn -1.5897411529 7.6795470352 3.6049148631
Zn -4.4095704632 1.6151722487 5.7942677310
Zn -5.6450399164 6.6961456576 5.7954706873
Zn 1.6915200000 0.4114910000 0.8555450000
Zn 0.4555910000 5.4920410000 0.8555450000
Zn -2.5667567458 -0.6161051322 3.0374815742
Zn -3.8030209658 4.4587875758 3.0374652094
Zn -6.7364489340 -1.6370776630 5.2512273087
Zn -7.9727810345 3.4387042276 5.2508974475
Zn 1.0735560000 2.9517660000 0.8555450000
Zn -0.1623740000 8.0323160000 0.8555450000
Zn -3.1849396012 1.9206147272 3.0374435609
Zn -4.4207181804 7.0024995713 3.0375329229
Zn -7.3545258373 0.9017681751 5.2506106596
Zn -8.5906140270 5.9802907584 5.2514875948
Zn 7.2216720000 0.4114910000 0.8555450000
Zn 5.9857420000 5.4920410000 0.8555450000
Zn 2.9612948086 -0.6166318309 3.0362632760
Zn 1.7251804796 4.4580714471 3.0362366120
Zn -1.2054525748 -1.6369268594 5.2512757828
Zn -2.4416995428 3.4388701889 5.2511816811
Zn 6.6037070000 2.9517660000 0.8555450000
Zn 5.3677780000 8.0323160000 0.8555450000
Zn 2.3431833060 1.9200029880 3.0361775580
Zn 1.1072882680 7.0021345405 3.0363011759
Zn -1.8236041667 0.9020085116 5.2508232004
Zn -3.0595190330 5.9807919720 5.2515400587
48
Frame from Quantum Espresso Output
Zn -1.0735560000 1.0841420000 1.1977640000
Zn -2.3094850000 6.1646920000 1.1977640000
Zn -5.2585077324 0.0619589073 3.6051636652
Zn -6.4945686272 5.1356916571 3.6057995341
Zn -9.3185386184 -0.9204573664 5.7779779409
Zn -10.5545928359 4.1522218130 5.7781494232
Zn -1.6915200000 3.6244170000 1.1977640000
Zn -2.9274500000 8.7049670000 1.1977640000
Zn -5.8767917705 2.5964080059 3.6050955157
Zn -7.1122095756 7.6819114887 3.6058476227
Zn -9.9367339268 1.6151766149 5.7772622741
Zn -11.1723071348 6.6968156006 5.7787909961
Zn 4.4565960000 1.0841420000 1.1977640000
Zn 3.2206660000 6.1646920000 1.1977640000
Zn 0.2701791300 0.0614472568 3.6049121251
Zn -0.9663019094 5.1357257437 3.6052071937
Zn -3.7859290325 -0.9200450552 5.7783341447
Zn -5.0217380954 4.1529944602 5.7781048635
Zn 3.8386310000 3.6244170000 1.1977640000
Zn 2.6027020000 8.7049670000 1.1977640000
Zn -0.3481712540 2.5956135370 3.6047014035
Zn -1.5838272391 7.6817040566 3.6054262840
Zn -4.4041105226 1.6161576189 5.7774747539
Zn -5.6393439072 6.6972405759 5.7788792914
Zn 1.6915200000 0.4114910000 0.8555450000
Zn 0.4555910000 5.4920410000 0.8555450000
Zn -2.5670818099 -0.6154210607 3.0351830556
Zn -3.8036955438 4.4571376331 3.0353959064
Zn -6.7333502084 -1.6354022220 5.2353164365
Zn -7.9696422729 3.4381014360 5.2348391172
Zn 1.0735560000 2.9517660000 0.8555450000
Zn -0.1623740000 8.0323160000 0.8555450000
Zn -3.1855205993 1.9198787307 3.0349472720
Zn -4.4211182465 7.0022064530 3.0356878300
Zn -7.3513880111 0.9027864347 5.2345146855
Zn -8.5875093038 5.9802584072 5.2356202487
Zn 7.2216720000 0.4114910000 0.8555450000
Zn 5.9857420000 5.4920410000 0.8555450000
Zn 2.9606249773 -0.6159197811 3.0343909744
Zn 1.7243457703 4.4561561510 3.0345302769
Zn -1.2027092231 -1.6354562405 5.2350952434
Zn -2.4390937903 3.4381065660 5.2349056596
Zn 6.6037070000 2.9517660000 0.8555450000
Zn 5.3677780000 8.0323160000 0.8555450000
Zn 2.3423906572 1.9190956414 3.0341035952
Zn 1.1065171065 7.0019401216 3.0347968126
Zn -1.8208245318 0.9029375765 5.2345090633
Zn -3.0569925806 5.9807578212 5.2353798814
