63
Final Frame from Quantum Espresso Output
Zn 1.2182900000 1.3071800000 0.7547010000
Zn 1.2182900000 6.5359000000 0.7547010000
Zn 0.5051707523 -0.0016678824 3.6491535774
Zn 0.5064249302 5.2310285705 3.6465742633
Zn 1.2181500517 -1.3058163198 6.0919010176
Zn 1.2148873815 3.9222011130 6.0876597978
Zn 1.2182900000 3.9215400000 0.7547010000
Zn 1.2182900000 9.1502600000 0.7547010000
Zn 0.5045730705 2.6166531072 3.6463736525
Zn 0.5071290844 7.8420752374 3.6465437286
Zn 1.2152515311 1.3077584971 6.0795593986
Zn 1.2151283352 6.5365005533 6.0837668786
Zn 6.0914510000 1.3071800000 0.7547010000
Zn 6.0914510000 6.5359000000 0.7547010000
Zn 5.3891977999 -0.0011431921 3.6358467326
Zn 5.3857616272 5.2298429986 3.6421668791
Zn 6.0900593435 -1.3082039500 6.0836316015
Zn 6.0884710832 3.9214082530 6.0792422027
Zn 6.0914510000 3.9215400000 0.7547010000
Zn 6.0914510000 9.1502600000 0.7547010000
Zn 5.3905126185 2.6159984862 3.6302075797
Zn 5.3869785604 7.8418344473 3.6406114740
Zn 6.0897019433 1.3072215795 6.0766697791
Zn 6.0899072087 6.5356623509 6.0778492577
Zn 3.6548710000 -0.0000000000 1.5094010000
Zn 3.6548710000 5.2287200000 1.5094010000
Zn 2.8569119205 -1.3104097721 3.6843132495
Zn 2.8546138341 3.9266918238 3.6821137394
Zn 3.6582241837 -2.6154136357 5.9986491264
Zn 3.6624099794 2.6232417437 5.9489944137
Zn 3.6548710000 2.6143600000 1.5094010000
Zn 3.6548710000 7.8430800000 1.5094010000
Zn 2.8522633102 1.3068296379 3.6780973449
Zn 2.8612317534 6.5369556785 3.6866150283
Zn 3.6668844641 -0.0039716763 5.9699085665
Zn 3.6575356923 5.2320354393 5.9968236702
Zn 8.5280310000 -0.0000000000 1.5094010000
Zn 8.5280310000 5.2287200000 1.5094010000
Zn 7.7412568140 -1.3088097188 3.6934173157
Zn 7.7393030218 3.9235998938 3.6939166652
Zn 8.5333837464 -2.6150478915 6.0079858052
Zn 8.5317043116 2.6154410694 6.0064835940
Zn 8.5280310000 2.6143600000 1.5094010000
Zn 8.5280310000 7.8430800000 1.5094010000
Zn 7.7394970808 1.3076918843 3.6918756360
Zn 7.7409778419 6.5360249175 3.6929300932
Zn 8.5304750622 -0.0006814597 6.0068925296
Zn 8.5312414449 5.2296989776 6.0073114437
C 1.0928564733 1.0803258796 14.2271039272
C 1.7780662992 1.1707288728 12.9816968295
C 3.0716681288 1.7255439047 12.9131385681
C 1.1697595070 0.7194030985 11.7929231288
C 3.7304468719 1.8315205388 11.6982230173
C 1.8282145640 0.8238476295 10.5776131549
C 3.1216497485 1.3859680774 10.5053176919
N 0.5287102987 1.0127950529 15.2476902266
N 3.7884842681 1.4523468026 9.3034144562
H 3.2508055260 1.3638207518 8.4443836042
H 4.5911626998 2.0658568716 9.2232321892
H 0.1701919125 0.2865207270 11.8360098040
H 3.5529488044 2.0777548420 13.8255530578
H 1.3456985094 0.4707485511 9.6631852237
H 4.7322142097 2.2640787889 11.6626035026
