63
Frame from Quantum Espresso Output
Zn 1.2182900000 1.3071800000 0.7547010000
Zn 1.2182900000 6.5359000000 0.7547010000
Zn 0.5058552970 -0.0022621946 3.6495595415
Zn 0.5069251615 5.2310677296 3.6461798960
Zn 1.2177555254 -1.3052223807 6.0915443747
Zn 1.2140901812 3.9221249639 6.0869194945
Zn 1.2182900000 3.9215400000 0.7547010000
Zn 1.2182900000 9.1502600000 0.7547010000
Zn 0.5050137680 2.6171224738 3.6467460678
Zn 0.5068563923 7.8418460476 3.6458024877
Zn 1.2145323036 1.3071562982 6.0791245928
Zn 1.2147802900 6.5361647737 6.0834587894
Zn 6.0914510000 1.3071800000 0.7547010000
Zn 6.0914510000 6.5359000000 0.7547010000
Zn 5.3890285813 -0.0015052102 3.6365220269
Zn 5.3854568129 5.2294061877 3.6425336019
Zn 6.0907053425 -1.3074362908 6.0834680362
Zn 6.0888431440 3.9207278867 6.0788726441
Zn 6.0914510000 3.9215400000 0.7547010000
Zn 6.0914510000 9.1502600000 0.7547010000
Zn 5.3908122300 2.6162849925 3.6308179541
Zn 5.3866682433 7.8420808655 3.6406253448
Zn 6.0897922899 1.3069295931 6.0765241984
Zn 6.0906052706 6.5355576629 6.0776973847
Zn 3.6548710000 -0.0000000000 1.5094010000
Zn 3.6548710000 5.2287200000 1.5094010000
Zn 2.8563207657 -1.3105639192 3.6844133789
Zn 2.8539231679 3.9279456898 3.6827341527
Zn 3.6576483781 -2.6154879106 5.9979435497
Zn 3.6625276275 2.6228388276 5.9481635589
Zn 3.6548710000 2.6143600000 1.5094010000
Zn 3.6548710000 7.8430800000 1.5094010000
Zn 2.8513717887 1.3061401698 3.6795328933
Zn 2.8607924673 6.5364074803 3.6860422085
Zn 3.6673242727 -0.0039852948 5.9688517692
Zn 3.6576359732 5.2322851082 5.9959443750
Zn 8.5280310000 -0.0000000000 1.5094010000
Zn 8.5280310000 5.2287200000 1.5094010000
Zn 7.7412535443 -1.3086213626 3.6943776343
Zn 7.7389200155 3.9231900304 3.6949190811
Zn 8.5333733374 -2.6145340903 6.0077860562
Zn 8.5317295981 2.6154218582 6.0052856691
Zn 8.5280310000 2.6143600000 1.5094010000
Zn 8.5280310000 7.8430800000 1.5094010000
Zn 7.7391791989 1.3079301073 3.6925544672
Zn 7.7411755876 6.5360140241 3.6934932647
Zn 8.5300742446 -0.0007918500 6.0058335591
Zn 8.5310920500 5.2290264752 6.0068930742
C 1.0935279619 1.0798860717 14.2268856490
C 1.7784819608 1.1706809963 12.9819393806
C 3.0715011744 1.7266139333 12.9129718600
C 1.1707773759 0.7178934225 11.7936991191
C 3.7308824868 1.8312777281 11.6983380996
C 1.8289871598 0.8230498159 10.5784713742
C 3.1219192660 1.3859889551 10.5053623881
N 0.5282613530 1.0142448946 15.2474617566
N 3.7880307348 1.4527331760 9.3030419220
H 3.2507909515 1.3646651361 8.4436765177
H 4.5904979103 2.0665877406 9.2233335666
H 0.1703115675 0.2872032308 11.8364478256
H 3.5532719767 2.0774511232 13.8255566085
H 1.3452420716 0.4714723184 9.6644138824
H 4.7322629538 2.2646976217 11.6631184207
63
Frame from Quantum Espresso Output
Zn 1.2182900000 1.3071800000 0.7547010000
Zn 1.2182900000 6.5359000000 0.7547010000
Zn 0.5056223111 -0.0021317075 3.6492701196
Zn 0.5067372388 5.2311030364 3.6462596223
Zn 1.2177868062 -1.3056437266 6.0917314168
Zn 1.2142407279 3.9223561824 6.0871600811
Zn 1.2182900000 3.9215400000 0.7547010000
Zn 1.2182900000 9.1502600000 0.7547010000
Zn 0.5048616916 2.6171533892 3.6464905695
Zn 0.5068983835 7.8417301991 3.6459752331
Zn 1.2146358387 1.3074234230 6.0793320489
Zn 1.2147983721 6.5362020540 6.0835827287
Zn 6.0914510000 1.3071800000 0.7547010000
Zn 6.0914510000 6.5359000000 0.7547010000
Zn 5.3890935698 -0.0014204166 3.6361497860
Zn 5.3855674138 5.2295696536 3.6424177972
Zn 6.0905865783 -1.3079046931 6.0836452949
Zn 6.0888003765 3.9211492274 6.0790355802
Zn 6.0914510000 3.9215400000 0.7547010000
Zn 6.0914510000 9.1502600000 0.7547010000
Zn 5.3907232105 2.6163658125 3.6304693698
Zn 5.3867776207 7.8418111472 3.6405899155
Zn 6.0898393011 1.3071023194 6.0766895540
Zn 6.0904795886 6.5355083517 6.0777955597
Zn 3.6548710000 -0.0000000000 1.5094010000
Zn 3.6548710000 5.2287200000 1.5094010000
Zn 2.8564290444 -1.3107138237 3.6842368727
Zn 2.8540792010 3.9276965687 3.6824423977
Zn 3.6577857160 -2.6156887488 5.9982112450
Zn 3.6624707522 2.6232114670 5.9484576810
Zn 3.6548710000 2.6143600000 1.5094010000
Zn 3.6548710000 7.8430800000 1.5094010000
Zn 2.8515809271 1.3064797255 3.6788687190
Zn 2.8608601063 6.5365052343 3.6861748129
Zn 3.6671894006 -0.0041012307 5.9692627964
Zn 3.6576095494 5.2322946765 5.9962230777
Zn 8.5280310000 -0.0000000000 1.5094010000
Zn 8.5280310000 5.2287200000 1.5094010000
Zn 7.7413215267 -1.3088319978 3.6940122415
Zn 7.7390792140 3.9234872693 3.6945657108
Zn 8.5334080880 -2.6149127505 6.0079055003
Zn 8.5317501365 2.6156320788 6.0056823608
Zn 8.5280310000 2.6143600000 1.5094010000
Zn 8.5280310000 7.8430800000 1.5094010000
Zn 7.7393271656 1.3079456831 3.6921777374
Zn 7.7411648946 6.5359089441 3.6933753045
Zn 8.5302094355 -0.0008425627 6.0062215569
Zn 8.5311504017 5.2293183621 6.0070395284
C 1.0929804799 1.0801003812 14.2276221783
C 1.7784659737 1.1706176883 12.9819177231
C 3.0717138792 1.7260983119 12.9131261486
C 1.1704142263 0.7184847830 11.7935739543
C 3.7306618215 1.8315796709 11.6983911089
C 1.8286795705 0.8232742360 10.5782787438
C 3.1219248075 1.3858059435 10.5054431291
N 0.5286490147 1.0138491220 15.2471448427
N 3.7881254287 1.4526562740 9.3032003689
H 3.2507728726 1.3644401842 8.4440067715
H 4.5907468279 2.0664608886 9.2233586274
H 0.1703150438 0.2869285598 11.8364151078
H 3.5531667150 2.0776111376 13.8256335234
H 1.3453408111 0.4712243207 9.6640479856
H 4.7323078443 2.2645164804 11.6630499302
63
Frame from Quantum Espresso Output
Zn 1.2182900000 1.3071800000 0.7547010000
Zn 1.2182900000 6.5359000000 0.7547010000
Zn 0.5054187742 -0.0019482228 3.6490505141
Zn 0.5065705949 5.2310764485 3.6463130079
Zn 1.2178522692 -1.3057954571 6.0918574564
Zn 1.2144227337 3.9223461433 6.0874235783
Zn 1.2182900000 3.9215400000 0.7547010000
Zn 1.2182900000 9.1502600000 0.7547010000
Zn 0.5047226321 2.6169231412 3.6462889886
Zn 0.5069522289 7.8418856967 3.6461245397
Zn 1.2147848675 1.3075546638 6.0794682209
Zn 1.2148534348 6.5363466750 6.0837379939
Zn 6.0914510000 1.3071800000 0.7547010000
Zn 6.0914510000 6.5359000000 0.7547010000
Zn 5.3891594934 -0.0012964779 3.6358557429
Zn 5.3856641629 5.2296718946 3.6422684614
Zn 6.0904403262 -1.3081064084 6.0837359459
Zn 6.0887283761 3.9213146291 6.0792171504
Zn 6.0914510000 3.9215400000 0.7547010000
Zn 6.0914510000 9.1502600000 0.7547010000
Zn 5.3906475650 2.6161892003 3.6301910387
Zn 5.3868808428 7.8418275520 3.6405312590
Zn 6.0898442953 1.3071482412 6.0767698268
Zn 6.0903277154 6.5355792478 6.0779200471
Zn 3.6548710000 -0.0000000000 1.5094010000
Zn 3.6548710000 5.2287200000 1.5094010000
Zn 2.8565551471 -1.3106047882 3.6841118549
Zn 2.8542356855 3.9272466277 3.6821825235
Zn 3.6579266777 -2.6156284675 5.9984600860
Zn 3.6624246286 2.6232946520 5.9487338721
Zn 3.6548710000 2.6143600000 1.5094010000
Zn 3.6548710000 7.8430800000 1.5094010000
Zn 2.8517971905 1.3066351373 3.6783306631
Zn 2.8609381959 6.5367312774 3.6862776123
Zn 3.6670532671 -0.0041093451 5.9695785175
Zn 3.6575813073 5.2322263700 5.9965411583
Zn 8.5280310000 -0.0000000000 1.5094010000
Zn 8.5280310000 5.2287200000 1.5094010000
Zn 7.7413642434 -1.3088060488 3.6936688188
Zn 7.7392182363 3.9235324718 3.6942161914
Zn 8.5334326168 -2.6150178929 6.0080049069
Zn 8.5317652635 2.6155925129 6.0060441255
Zn 8.5280310000 2.6143600000 1.5094010000
Zn 8.5280310000 7.8430800000 1.5094010000
Zn 7.7394543828 1.3078157459 3.6918777491
Zn 7.7411379115 6.5359663447 3.6931882301
Zn 8.5303360381 -0.0008145518 6.0065194272
Zn 8.5312094907 5.2295127676 6.0072226348
C 1.0931540324 1.0803240662 14.2270801439
C 1.7783325720 1.1705923598 12.9820462013
C 3.0718204066 1.7257087952 12.9132449213
C 1.1700940247 0.7189724337 11.7934186015
C 3.7304802546 1.8317181471 11.6984189911
C 1.8284181951 0.8234847341 10.5780754352
C 3.1219191747 1.3857611266 10.5055100748
N 0.5284439503 1.0134005013 15.2478759487
N 3.7881389968 1.4524996153 9.3033212958
H 3.2507991792 1.3642180780 8.4443346545
H 4.5910071120 2.0663348385 9.2233855327
H 0.1702970622 0.2867037474 11.8363689691
H 3.5530774480 2.0777315366 13.8257107313
H 1.3454599600 0.4710071485 9.6637430011
H 4.7323263664 2.2643491921 11.6629698023
63
Frame from Quantum Espresso Output
Zn 1.2182900000 1.3071800000 0.7547010000
Zn 1.2182900000 6.5359000000 0.7547010000
Zn 0.5052991287 -0.0018247677 3.6490820526
Zn 0.5064968327 5.2310614513 3.6464254994
Zn 1.2179792394 -1.3058316104 6.0918865954
Zn 1.2146268752 3.9222989342 6.0875337135
Zn 1.2182900000 3.9215400000 0.7547010000
Zn 1.2182900000 9.1502600000 0.7547010000
Zn 0.5046503806 2.6168183774 3.6463130755
Zn 0.5070283276 7.8419494158 3.6463096952
Zn 1.2149869326 1.3076591412 6.0795202794
Zn 1.2149694711 6.5364109491 6.0837524546
Zn 6.0914510000 1.3071800000 0.7547010000
Zn 6.0914510000 6.5359000000 0.7547010000
Zn 5.3891781040 -0.0012290233 3.6358367651
Zn 5.3857117034 5.2297580248 3.6422201019
Zn 6.0902730766 -1.3081776775 6.0837035671
Zn 6.0886171231 3.9213797454 6.0792365201
Zn 6.0914510000 3.9215400000 0.7547010000
Zn 6.0914510000 9.1502600000 0.7547010000
Zn 5.3905839348 2.6161196859 3.6301830030
Zn 5.3869280007 7.8418052298 3.6405646300
Zn 6.0897863928 1.3071922000 6.0767416279
Zn 6.0901438377 6.5356090066 6.0778919843
Zn 3.6548710000 -0.0000000000 1.5094010000
Zn 3.6548710000 5.2287200000 1.5094010000
Zn 2.8567091462 -1.3105411644 3.6841902088
Zn 2.8544021363 3.9270038186 3.6821397987
Zn 3.6580582069 -2.6155526759 5.9985515580
Zn 3.6624138261 2.6232966064 5.9488598589
Zn 3.6548710000 2.6143600000 1.5094010000
Zn 3.6548710000 7.8430800000 1.5094010000
Zn 2.8520031616 1.3067422987 3.6782026745
Zn 2.8610636812 6.5368294585 3.6864258705
Zn 3.6669743487 -0.0040584647 5.9697423388
Zn 3.6575595820 5.2321462410 5.9966719695
Zn 8.5280310000 -0.0000000000 1.5094010000
Zn 8.5280310000 5.2287200000 1.5094010000
Zn 7.7413243215 -1.3088274799 3.6935448566
Zn 7.7392652683 3.9235863521 3.6940704997
Zn 8.5334155892 -2.6150568855 6.0080025438
Zn 8.5317422618 2.6155416092 6.0062508077
Zn 8.5280310000 2.6143600000 1.5094010000
Zn 8.5280310000 7.8430800000 1.5094010000
Zn 7.7394822679 1.3077681172 3.6918604884
Zn 7.7410712070 6.5359803584 3.6930719296
Zn 8.5304033402 -0.0007600017 6.0066997031
Zn 8.5312275126 5.2296088574 6.0072652040
C 1.0930084163 1.0803411242 14.2271171624
C 1.7782306390 1.1706473084 12.9818982814
C 3.0717448998 1.7256042096 12.9132319952
C 1.1699341298 0.7191872527 11.7931915678
C 3.7304929897 1.8316544434 11.6983094103
C 1.8283390145 0.8236590730 10.5778780625
C 3.1217601099 1.3858290479 10.5054307026
N 0.5285670672 1.0131252538 15.2477952282
N 3.7883824987 1.4524812449 9.3034068544
H 3.2507705088 1.3640350192 8.4443366251
H 4.5910389124 2.0660915779 9.2233204140
H 0.1702515161 0.2866093065 11.8362177476
H 3.5530208723 2.0777527444 13.8256462693
H 1.3455626776 0.4708813857 9.6634821561
H 4.7322695791 2.2642238766 11.6628102633
63
Frame from Quantum Espresso Output
Zn 1.2182900000 1.3071800000 0.7547010000
Zn 1.2182900000 6.5359000000 0.7547010000
Zn 0.5051707523 -0.0016678824 3.6491535774
Zn 0.5064249302 5.2310285705 3.6465742633
Zn 1.2181500517 -1.3058163198 6.0919010176
Zn 1.2148873815 3.9222011130 6.0876597978
Zn 1.2182900000 3.9215400000 0.7547010000
Zn 1.2182900000 9.1502600000 0.7547010000
Zn 0.5045730705 2.6166531072 3.6463736525
Zn 0.5071290844 7.8420752374 3.6465437286
Zn 1.2152515311 1.3077584971 6.0795593986
Zn 1.2151283352 6.5365005533 6.0837668786
Zn 6.0914510000 1.3071800000 0.7547010000
Zn 6.0914510000 6.5359000000 0.7547010000
Zn 5.3891977999 -0.0011431921 3.6358467326
Zn 5.3857616272 5.2298429986 3.6421668791
Zn 6.0900593435 -1.3082039500 6.0836316015
Zn 6.0884710832 3.9214082530 6.0792422027
Zn 6.0914510000 3.9215400000 0.7547010000
Zn 6.0914510000 9.1502600000 0.7547010000
Zn 5.3905126185 2.6159984862 3.6302075797
Zn 5.3869785604 7.8418344473 3.6406114740
Zn 6.0897019433 1.3072215795 6.0766697791
Zn 6.0899072087 6.5356623509 6.0778492577
Zn 3.6548710000 -0.0000000000 1.5094010000
Zn 3.6548710000 5.2287200000 1.5094010000
Zn 2.8569119205 -1.3104097721 3.6843132495
Zn 2.8546138341 3.9266918238 3.6821137394
Zn 3.6582241837 -2.6154136357 5.9986491264
Zn 3.6624099794 2.6232417437 5.9489944137
Zn 3.6548710000 2.6143600000 1.5094010000
Zn 3.6548710000 7.8430800000 1.5094010000
Zn 2.8522633102 1.3068296379 3.6780973449
Zn 2.8612317534 6.5369556785 3.6866150283
Zn 3.6668844641 -0.0039716763 5.9699085665
Zn 3.6575356923 5.2320354393 5.9968236702
Zn 8.5280310000 -0.0000000000 1.5094010000
Zn 8.5280310000 5.2287200000 1.5094010000
Zn 7.7412568140 -1.3088097188 3.6934173157
Zn 7.7393030218 3.9235998938 3.6939166652
Zn 8.5333837464 -2.6150478915 6.0079858052
Zn 8.5317043116 2.6154410694 6.0064835940
Zn 8.5280310000 2.6143600000 1.5094010000
Zn 8.5280310000 7.8430800000 1.5094010000
Zn 7.7394970808 1.3076918843 3.6918756360
Zn 7.7409778419 6.5360249175 3.6929300932
Zn 8.5304750622 -0.0006814597 6.0068925296
Zn 8.5312414449 5.2296989776 6.0073114437
C 1.0928564733 1.0803258796 14.2271039272
C 1.7780662992 1.1707288728 12.9816968295
C 3.0716681288 1.7255439047 12.9131385681
C 1.1697595070 0.7194030985 11.7929231288
C 3.7304468719 1.8315205388 11.6982230173
C 1.8282145640 0.8238476295 10.5776131549
C 3.1216497485 1.3859680774 10.5053176919
N 0.5287102987 1.0127950529 15.2476902266
N 3.7884842681 1.4523468026 9.3034144562
H 3.2508055260 1.3638207518 8.4443836042
H 4.5911626998 2.0658568716 9.2232321892
H 0.1701919125 0.2865207270 11.8360098040
H 3.5529488044 2.0777548420 13.8255530578
H 1.3456985094 0.4707485511 9.6631852237
H 4.7322142097 2.2640787889 11.6626035026
63
Frame from Quantum Espresso Output
Zn 1.2182900000 1.3071800000 0.7547010000
Zn 1.2182900000 6.5359000000 0.7547010000
Zn 0.5051707523 -0.0016678824 3.6491535774
Zn 0.5064249302 5.2310285705 3.6465742633
Zn 1.2181500517 -1.3058163198 6.0919010176
Zn 1.2148873815 3.9222011130 6.0876597978
Zn 1.2182900000 3.9215400000 0.7547010000
Zn 1.2182900000 9.1502600000 0.7547010000
Zn 0.5045730705 2.6166531072 3.6463736525
Zn 0.5071290844 7.8420752374 3.6465437286
Zn 1.2152515311 1.3077584971 6.0795593986
Zn 1.2151283352 6.5365005533 6.0837668786
Zn 6.0914510000 1.3071800000 0.7547010000
Zn 6.0914510000 6.5359000000 0.7547010000
Zn 5.3891977999 -0.0011431921 3.6358467326
Zn 5.3857616272 5.2298429986 3.6421668791
Zn 6.0900593435 -1.3082039500 6.0836316015
Zn 6.0884710832 3.9214082530 6.0792422027
Zn 6.0914510000 3.9215400000 0.7547010000
Zn 6.0914510000 9.1502600000 0.7547010000
Zn 5.3905126185 2.6159984862 3.6302075797
Zn 5.3869785604 7.8418344473 3.6406114740
Zn 6.0897019433 1.3072215795 6.0766697791
Zn 6.0899072087 6.5356623509 6.0778492577
Zn 3.6548710000 -0.0000000000 1.5094010000
Zn 3.6548710000 5.2287200000 1.5094010000
Zn 2.8569119205 -1.3104097721 3.6843132495
Zn 2.8546138341 3.9266918238 3.6821137394
Zn 3.6582241837 -2.6154136357 5.9986491264
Zn 3.6624099794 2.6232417437 5.9489944137
Zn 3.6548710000 2.6143600000 1.5094010000
Zn 3.6548710000 7.8430800000 1.5094010000
Zn 2.8522633102 1.3068296379 3.6780973449
Zn 2.8612317534 6.5369556785 3.6866150283
Zn 3.6668844641 -0.0039716763 5.9699085665
Zn 3.6575356923 5.2320354393 5.9968236702
Zn 8.5280310000 -0.0000000000 1.5094010000
Zn 8.5280310000 5.2287200000 1.5094010000
Zn 7.7412568140 -1.3088097188 3.6934173157
Zn 7.7393030218 3.9235998938 3.6939166652
Zn 8.5333837464 -2.6150478915 6.0079858052
Zn 8.5317043116 2.6154410694 6.0064835940
Zn 8.5280310000 2.6143600000 1.5094010000
Zn 8.5280310000 7.8430800000 1.5094010000
Zn 7.7394970808 1.3076918843 3.6918756360
Zn 7.7409778419 6.5360249175 3.6929300932
Zn 8.5304750622 -0.0006814597 6.0068925296
Zn 8.5312414449 5.2296989776 6.0073114437
C 1.0928564733 1.0803258796 14.2271039272
C 1.7780662992 1.1707288728 12.9816968295
C 3.0716681288 1.7255439047 12.9131385681
C 1.1697595070 0.7194030985 11.7929231288
C 3.7304468719 1.8315205388 11.6982230173
C 1.8282145640 0.8238476295 10.5776131549
C 3.1216497485 1.3859680774 10.5053176919
N 0.5287102987 1.0127950529 15.2476902266
N 3.7884842681 1.4523468026 9.3034144562
H 3.2508055260 1.3638207518 8.4443836042
H 4.5911626998 2.0658568716 9.2232321892
H 0.1701919125 0.2865207270 11.8360098040
H 3.5529488044 2.0777548420 13.8255530578
H 1.3456985094 0.4707485511 9.6631852237
H 4.7322142097 2.2640787889 11.6626035026
