3
Frame from Quantum Espresso Output
O 0.4187958790 1.0064785692 1.1850509160
H 1.4030247517 0.9757378239 1.1307471727
H 0.1493693693 0.5384886069 0.3594349112
3
Frame from Quantum Espresso Output
O 0.4224209523 1.0038997673 1.1805244449
H 1.3996341923 0.9764423698 1.1320227350
H 0.1491348554 0.5403628628 0.3626858202
3
Frame from Quantum Espresso Output
O 0.4234613986 1.0031205385 1.1792261081
H 1.4001903868 0.9771795202 1.1333591338
H 0.1475382146 0.5404049413 0.3626477582
3
Frame from Quantum Espresso Output
O 0.4243409801 1.0024465516 1.1781811045
H 1.4012483029 0.9780066417 1.1348694063
H 0.1456007170 0.5402518067 0.3621824893
3
Frame from Quantum Espresso Output
O 0.4246869187 1.0020758814 1.1777118336
H 1.4020278148 0.9784792348 1.1357448639
H 0.1444752665 0.5401498838 0.3617763026
3
Frame from Quantum Espresso Output
O 0.4246869187 1.0020758814 1.1777118336
H 1.4020278148 0.9784792348 1.1357448639
H 0.1444752665 0.5401498838 0.3617763026
