15

N               -2.2580899005        0.2502958463        0.5939697558
C               -0.8084072505        0.2255434709        0.2266027251
C               -0.1539808193        1.4392679452        0.0525858232
C               -0.1803136296       -1.0083765960        0.1072310228
C                1.2079542186        1.4070140008       -0.2565845012
C                1.1821451493       -1.0193590817       -0.2012552240
C                1.8709008378        0.1831320340       -0.3798400828
H               -0.6783085035        2.3922035509        0.1507684093
H               -0.7246884981       -1.9447944906        0.2472561454
H                1.7466818155        2.3429460670       -0.4007667612
H                1.7007062437       -1.9721187510       -0.3032109074
H                2.9338722592        0.1663371466       -0.6198150979
H               -2.7384740677       -0.5979222089        0.2609939548
H               -2.7326533949        1.0625598769        0.1741707635
H               -2.3926324880        0.3040851335        1.6156946589