63
Final Frame from Quantum Espresso Output
Zn 0.0000000000 1.5094010000 1.2182900000
Zn 5.2287200000 1.5094010000 1.2182900000
Zn 0.0073567980 1.5212955052 6.1759782517
Zn 5.2301545281 1.5219600848 6.1907851520
Zn -1.3071800000 3.7735030000 1.2182900000
Zn 3.9215400000 3.7735030000 1.2182900000
Zn -1.3008917491 3.7832082836 6.1783037018
Zn 3.9269024485 3.7825105010 6.1201044822
Zn -2.6143600000 6.0376050000 1.2182900000
Zn 2.6143600000 6.0376050000 1.2182900000
Zn -2.6127829874 6.0457591294 6.1819960272
Zn 2.6214851972 6.0544436339 5.9582801169
Zn -3.9215400000 8.3017080000 1.2182900000
Zn 1.3071800000 8.3017080000 1.2182900000
Zn -3.9172763930 8.3131288615 6.1770792684
Zn 1.3101697851 8.3129408429 6.1879449607
Zn 2.6143600000 1.5094010000 1.2182900000
Zn 7.8430800000 1.5094010000 1.2182900000
Zn 2.6175821489 1.5186618275 6.1729167712
Zn 7.8467275626 1.5203998312 6.1787261592
Zn 1.3071800000 3.7735030000 1.2182900000
Zn 6.5359000000 3.7735030000 1.2182900000
Zn 1.3105768726 3.7829638223 6.1342001066
Zn 6.5400326241 3.7833169294 6.1666894821
Zn 0.0000000000 6.0376050000 1.2182900000
Zn 5.2287200000 6.0376050000 1.2182900000
Zn 0.0059298033 6.0467355753 6.1826262287
Zn 5.2339426404 6.0498571525 6.1603708790
Zn -1.3071800000 8.3017080000 1.2182900000
Zn 3.9215400000 8.3017080000 1.2182900000
Zn -1.3042085086 8.3129524128 6.1802233901
Zn 3.9286052005 8.3111662410 6.1821394276
Zn 1.3097766599 0.7579148927 3.6953517836
Zn 6.5360717221 0.7623276599 3.7004939239
Zn -0.0012762609 3.0203917244 3.6893706189
Zn 5.2358566396 3.0182152532 3.6827081099
Zn -1.3080124072 5.2886226799 3.7019911673
Zn 3.9336726769 5.2854353404 3.6685645036
Zn -2.6119074259 7.5545366930 3.7070807724
Zn 2.6155792070 7.5681851437 3.6837535651
Zn 3.9236949256 0.7583718740 3.7012191363
Zn 9.1546077293 0.7632580585 3.7047454047
Zn 2.6154075543 3.0194576372 3.6831134943
Zn 7.8464388266 3.0231612652 3.7028376511
Zn 1.2961110922 5.2850173055 3.6751459790
Zn 6.5431410751 5.2900999262 3.6910881384
Zn -0.0000441179 7.5553172187 3.6990156021
Zn 5.2343243971 7.5564027436 3.6886155866
C 3.1105235777 1.9789978743 9.8932754935
C 4.4981926528 1.9590934631 10.0538911171
C 2.4525851564 3.1822398199 9.6326204663
C 5.2392072053 3.1378011411 9.9488983885
C 3.2113614197 4.3461261290 9.5501621498
C 4.5958417720 4.3499403022 9.6862298741
N 2.5249002833 5.6034988684 9.2082891827
H 2.5351060419 1.0564628029 9.9638691403
H 5.0054570768 1.0168195971 10.2624321628
H 1.6060383136 5.6802502518 9.6646039684
H 1.3705569784 3.2084314126 9.4898450580
H 6.3218095814 3.1184117904 10.0713296816
H 3.0874993344 6.4290666817 9.4537458200
H 5.1675028050 5.2745268492 9.5839797257
H 2.3512182286 5.6602797885 8.1493213851
