47
Final Frame from Quantum Espresso Output
Zn -1.0735556570 1.0841422360 1.1977635690
Zn -5.3677776710 0.0395003420 3.2510724040
Zn -8.8047160858 -0.7385568614 6.6057662704
Zn -12.9700114207 -1.7896836304 7.8706660962
Zn -1.6915203730 3.6244172340 1.1977635690
Zn -5.9857423860 2.5797753400 3.2510724040
Zn -9.4505001544 1.7926692961 6.5588138399
Zn -13.5369493558 0.7501135802 7.9267259250
Zn 4.4565957100 1.0841422360 1.1977635690
Zn 0.1623736960 0.0395003420 3.2510724040
Zn -4.3117307582 -0.9689759552 5.7746582143
Zn -6.8095955923 -1.5900918238 7.9874908317
Zn 3.8386309950 3.6244172340 1.1977635690
Zn -0.4555910190 2.5797753400 3.2510724040
Zn -4.8907760978 1.5664327757 5.7732583145
Zn -7.4282139175 0.9492078356 8.0345243297
Zn 1.6915202950 0.4114908680 0.8555452660
Zn -2.6027017190 -0.6331510260 2.9088541010
Zn -6.7828905213 -1.5959902052 5.0261598706
Zn -10.7104749780 -2.5550983803 6.5514114545
Zn 1.0735555790 2.9517658660 0.8555452660
Zn -3.2206664340 1.9071239720 2.9088541010
Zn -7.4163718389 0.9318631514 5.0112934431
Zn -11.2877057384 -0.0163666303 6.5243274671
Zn 7.2216716620 0.4114908680 0.8555452660
Zn 2.9274496480 -0.6331510260 2.9088541010
Zn -1.6532256739 -1.7052930244 5.0718757358
Zn -4.3668070844 -2.3197596878 8.1705085949
Zn 6.6037069470 2.9517658660 0.8555452660
Zn 2.3094849330 1.9071239720 2.9088541010
Zn -2.2960984373 0.8177513778 5.1235510726
Zn -4.9464847028 0.2298351733 8.2287751790
C -8.1803207772 -1.8282641286 16.9352824006
C -8.5960288787 -1.7836691004 15.5678840327
C -9.6446164944 -2.6080762871 15.1119254592
C -8.0095320662 -0.8730769827 14.6568724201
C -8.4461144583 -0.7871420090 13.3396328509
C -10.0992960165 -2.5081630438 13.8036999521
C -9.5103729053 -1.6074325194 12.8884469265
N -7.8824917539 -1.8056815342 18.0717780420
N -9.9231315190 -1.5595286869 11.5714694070
H -9.7084755278 -0.7135125117 11.0358533048
H -10.7696257547 -2.0558008956 11.2984046104
H -10.1028465001 -3.3260503320 15.7968566799
H -7.1865921535 -0.2397535256 15.0092660342
H -7.9573839056 -0.0928332821 12.6407969967
H -10.9378250852 -3.1279406735 13.4685079742
