63
Final Frame from Quantum Espresso Output
Zn 1.2182900000 1.3071800000 0.7547010000
Zn 1.2182900000 6.5359000000 0.7547010000
Zn 1.8734662251 -0.0057910936 3.6271405672
Zn 1.8884840896 5.2233895031 3.6318375702
Zn 1.1455618105 -1.3134223472 6.0795825117
Zn 1.1421082715 3.9089504188 6.0697522788
Zn 1.2182900000 3.9215400000 0.7547010000
Zn 1.2182900000 9.1502600000 0.7547010000
Zn 1.8930167116 2.6089620246 3.6291624758
Zn 1.8876861488 7.8385273688 3.6319217513
Zn 1.1499587149 1.3031725044 6.0767008909
Zn 1.1477797091 6.5278670987 6.0666793003
Zn 6.0914510000 1.3071800000 0.7547010000
Zn 6.0914510000 6.5359000000 0.7547010000
Zn 6.7517078207 -0.0159243455 3.5985938210
Zn 6.7642179412 5.2282577212 3.6574606171
Zn 6.0232062138 -1.3147855807 6.0775563026
Zn 6.0096377514 3.9068137005 6.0741942087
Zn 6.0914510000 3.9215400000 0.7547010000
Zn 6.0914510000 9.1502600000 0.7547010000
Zn 6.7582367618 2.6170280249 3.6168877451
Zn 6.7545111569 7.8285278290 3.6405997841
Zn 6.0307376308 1.2954564533 6.0031285511
Zn 6.0167687050 6.5244981090 6.0941466697
Zn 3.6548710000 -0.0000000000 1.5094010000
Zn 3.6548710000 5.2287200000 1.5094010000
Zn 4.4032264060 -1.3221110393 3.6935829670
Zn 4.4035350395 3.9222463957 3.7070130856
Zn 3.5683083077 -2.6210950420 6.0204126369
Zn 3.5653426855 2.6084226743 6.0030867659
Zn 3.6548710000 2.6143600000 1.5094010000
Zn 3.6548710000 7.8430800000 1.5094010000
Zn 4.3992338977 1.3061713471 3.6890409101
Zn 4.4046459361 6.5271022598 3.7062214410
Zn 3.5654718483 -0.0161397150 5.9462650748
Zn 3.5499441356 5.2213171915 5.9928286754
Zn 8.5280310000 -0.0000000000 1.5094010000
Zn 8.5280310000 5.2287200000 1.5094010000
Zn 9.2808382797 -1.3169349957 3.6927016660
Zn 9.2863330150 3.9244559519 3.6917246776
Zn 8.4471036538 -2.6213339987 6.0084087993
Zn 8.4438633984 2.6049051692 5.9666798876
Zn 8.5280310000 2.6143600000 1.5094010000
Zn 8.5280310000 7.8430800000 1.5094010000
Zn 9.2869668797 1.3031522360 3.6794194570
Zn 9.2770717410 6.5284126023 3.7080293070
Zn 8.4449865555 -0.0063246852 5.9757372557
Zn 8.4377193302 5.2177135984 5.9953920395
C 3.6394956087 2.2336127328 14.6580827661
C 3.7756806655 2.1323250880 13.2449843060
C 4.8220344193 2.7970817260 12.5770521818
C 2.8691177934 1.3617833659 12.4911943284
C 4.9671818625 2.6814357888 11.2026399696
C 3.0155211984 1.2460997373 11.1175061351
C 4.0768315536 1.8899229234 10.4476871937
N 3.5540494335 2.3071512620 15.8196959966
N 4.2260881035 1.7691015687 9.0841144551
H 3.7724695572 0.9914173781 8.6158745955
H 5.1197151277 2.0118715678 8.6677827766
H 2.0403854109 0.8652136159 12.9951100344
H 5.5172850300 3.4063286812 13.1538694882
H 2.3063078727 0.6557389072 10.5346972866
H 5.7808435377 3.1995872911 10.6930723911
