79
Final Frame from Quantum Espresso Output
Zn -1.0735556040 1.0841422490 1.1977635440
Zn -2.3094850350 6.1646922450 1.1977635440
Zn -5.3677775260 0.0395003770 3.2510723350
Zn -6.6037069570 5.1200503720 3.2510723350
Zn -9.7088858774 -1.0153955550 5.5543896226
Zn -10.9444035180 4.0649677300 5.5538356634
Zn -13.7211725510 -1.9892369009 7.6454934361
Zn -14.9561579128 3.0912092714 7.6452200771
Zn -1.6915203190 3.6244172470 1.1977635440
Zn -2.9274497510 8.7049672430 1.1977635440
Zn -5.9857422410 2.5797753750 3.2510723350
Zn -7.2216716720 7.6603253700 3.2510723350
Zn -10.3263522733 1.5250169809 5.5543198487
Zn -11.5628201443 6.6050599703 5.5538941870
Zn -14.3380011461 0.5512433454 7.6448709212
Zn -15.5752399855 5.6311273982 7.6458449757
Zn 4.4565957630 1.0841422490 1.1977635440
Zn 3.2206663320 6.1646922450 1.1977635440
Zn 0.1623738410 0.0395003770 3.2510723350
Zn -1.0735555900 5.1200503720 3.2510723350
Zn -4.1793243078 -1.0155598821 5.5556862714
Zn -5.4153469408 4.0646696895 5.5553949623
Zn -8.1945492073 -1.9905170570 7.6464066475
Zn -9.4310307431 3.0903329738 7.6470165897
Zn 3.8386310480 3.6244172470 1.1977635440
Zn 2.6027016170 8.7049672430 1.1977635440
Zn -0.4555908740 2.5797753750 3.2510723350
Zn -1.6915203050 7.6603253700 3.2510723350
Zn -4.7974143876 1.5244726216 5.5558938613
Zn -6.0331610955 6.6052431681 5.5554626138
Zn -8.8135584602 0.5495750217 7.6465680429
Zn -10.0483704804 5.6306895402 7.6463154525
Zn 1.6915203330 0.4114908770 0.8555452480
Zn 0.4555909020 5.4920408730 0.8555452480
Zn -2.6027015890 -0.6331509950 2.9088540390
Zn -3.8386310200 4.4473990010 2.9088540390
Zn -6.9452584387 -1.6914619182 5.0333828728
Zn -8.1810945190 3.3895607992 5.0334493768
Zn -11.1182441056 -2.7021271951 7.3055662928
Zn -12.3529930825 2.3790708479 7.3056072881
Zn 1.0735556170 2.9517658750 0.8555452480
Zn -0.1623738140 8.0323158710 0.8555452480
Zn -3.2206663040 1.9071240030 2.9088540390
Zn -4.4565957350 6.9876739990 2.9088540390
Zn -7.5633766753 0.8490115221 5.0335949595
Zn -8.7989186634 5.9296014609 5.0332836545
Zn -11.7355458608 -0.1614121049 7.3058439583
Zn -12.9716442696 4.9189892010 7.3052934781
Zn 7.2216717000 0.4114908770 0.8555452480
Zn 5.9857422690 5.4920408730 0.8555452480
Zn 2.9274497780 -0.6331509950 2.9088540390
Zn 1.6915203470 4.4473990010 2.9088540390
Zn -1.4146534150 -1.6907733912 5.0332388381
Zn -2.6502970615 3.3892114239 5.0326928849
Zn -5.5909590565 -2.7024773288 7.3051767646
Zn -6.8276234638 2.3778197828 7.3044328667
Zn 6.6037069850 2.9517658750 0.8555452480
Zn 5.3677775540 8.0323158710 0.8555452480
Zn 2.3094850630 1.9071240030 2.9088540390
Zn 1.0735556320 6.9876739990 2.9088540390
Zn -2.0321256085 0.8494379665 5.0331282488
Zn -3.2687138040 5.9294393559 5.0327803961
Zn -6.2094765288 -0.1629249429 7.3037363642
Zn -7.4449713545 4.9181633149 7.3056730962
C -2.7860838458 1.5625861853 14.9768502199
C -3.7051282863 1.4701624900 13.9318714202
C -4.4033075630 2.6086643254 13.4735548116
C -3.9642803540 0.2327755605 13.3017045687
C -4.8757164681 0.1374764785 12.2631609225
C -5.3154246757 2.5173604235 12.4369016213
C -5.5748906918 1.2786569783 11.8072278623
N -1.9816105441 1.6451533683 15.8922885742
N -6.4712897885 1.1871774487 10.7876614025
H -6.6626348136 0.2977178761 10.3265786341
H -6.9773951595 2.0050666123 10.4506083572
H -4.2152094836 3.5748323466 13.9500117026
H -3.4338977061 -0.6606351374 13.6429995417
H -5.0618695199 -0.8320546935 11.7902115958
H -5.8450746786 3.4138268373 12.0979696266
