64
Final Frame from Quantum Espresso Output
Zn -1.0735556040 1.0841422490 1.1977635440
Zn -2.3094850350 6.1646922450 1.1977635440
Zn -5.3677775260 0.0395003770 3.2510723350
Zn -6.6037069570 5.1200503720 3.2510723350
Zn -9.6768189300 -1.0057345107 5.5466620288
Zn -10.9116141838 4.0741023443 5.5468136793
Zn -13.6497276561 -1.9692784380 7.6054628579
Zn -14.8847366502 3.1085210501 7.6044849413
Zn -1.6915203190 3.6244172470 1.1977635440
Zn -2.9274497510 8.7049672430 1.1977635440
Zn -5.9857422410 2.5797753750 3.2510723350
Zn -7.2216716720 7.6603253700 3.2510723350
Zn -10.2933439398 1.5319375171 5.5464472190
Zn -11.5309729544 6.6168720089 5.5469984486
Zn -14.2660473720 0.5696144643 7.6054664276
Zn -15.5044605756 5.6502770601 7.6044885915
Zn 4.4565957630 1.0841422490 1.1977635440
Zn 3.2206663320 6.1646922450 1.1977635440
Zn 0.1623738410 0.0395003770 3.2510723350
Zn -1.0735555900 5.1200503720 3.2510723350
Zn -4.1505293464 -1.0056332854 5.5541161548
Zn -5.3832192020 4.0729507890 5.5571131204
Zn -8.1596044845 -1.9789377278 7.6256754092
Zn -9.3928717949 3.0990487042 7.6235720356
Zn 3.8386310480 3.6244172470 1.1977635440
Zn 2.6027016170 8.7049672430 1.1977635440
Zn -0.4555908740 2.5797753750 3.2510723350
Zn -1.6915203050 7.6603253700 3.2510723350
Zn -4.7668134371 1.5326384903 5.5547147164
Zn -6.0027820711 6.6150875309 5.5564580016
Zn -8.7758200448 0.5594992523 7.6246615501
Zn -10.0126483038 5.6411811594 7.6245773310
Zn 1.6915203330 0.4114908770 0.8555452480
Zn 0.4555909020 5.4920408730 0.8555452480
Zn -2.6027015890 -0.6331509950 2.9088540390
Zn -3.8386310200 4.4473990010 2.9088540390
Zn -6.9185239854 -1.6815132124 5.0105272530
Zn -8.1507825005 3.3952730334 5.0152441362
Zn -11.0680963552 -2.6867626899 7.2640516716
Zn -12.3021230939 2.3916578742 7.2641619212
Zn 1.0735556170 2.9517658750 0.8555452480
Zn -0.1623738140 8.0323158710 0.8555452480
Zn -3.2206663040 1.9071240030 2.9088540390
Zn -4.4565957350 6.9876739990 2.9088540390
Zn -7.5345681851 0.8561963049 5.0113624869
Zn -8.7707104459 5.9382188768 5.0143522722
Zn -11.6847173563 -0.1477111457 7.2643117809
Zn -12.9213501926 4.9329544927 7.2639008053
Zn 7.2216717000 0.4114908770 0.8555452480
Zn 5.9857422690 5.4920408730 0.8555452480
Zn 2.9274497780 -0.6331509950 2.9088540390
Zn 1.6915203470 4.4473990010 2.9088540390
Zn -1.3926749552 -1.6839397460 5.0153218617
Zn -2.6269424652 3.3948156536 5.0159937172
Zn -5.5725403411 -2.6950342691 7.2589761256
Zn -6.8071431172 2.3828791800 7.2582689323
Zn 6.6037069850 2.9517658750 0.8555452480
Zn 5.3677775540 8.0323158710 0.8555452480
Zn 2.3094850630 1.9071240030 2.9088540390
Zn 1.0735556320 6.9876739990 2.9088540390
Zn -2.0105274807 0.8539862638 5.0126424397
Zn -3.2450935821 5.9376497290 5.0186241025
Zn -6.1907949127 -0.1557060897 7.2588741734
Zn -7.4247692744 4.9238699672 7.2583560960
