62
Final Frame from Quantum Espresso Output
Zn 1.2182900000 1.3071800000 0.7547010000
Zn 1.2182900000 6.5359000000 0.7547010000
Zn 1.9365758440 -0.0000300463 3.6457235775
Zn 1.9363739239 5.2279891795 3.6453133207
Zn 1.2308006570 -1.3086150187 6.0731767174
Zn 1.2203550350 3.9232341495 6.0903231568
Zn 1.2182900000 3.9215400000 0.7547010000
Zn 1.2182900000 9.1502600000 0.7547010000
Zn 1.9387059495 2.6140326121 3.6554199010
Zn 1.9379926695 7.8424437349 3.6450370512
Zn 1.2199127426 1.3047048971 6.0895447818
Zn 1.2312457426 6.5364009694 6.0740393191
Zn 6.0914510000 1.3071800000 0.7547010000
Zn 6.0914510000 6.5359000000 0.7547010000
Zn 6.8051418283 -0.0009965209 3.6408790708
Zn 6.8051828962 5.2288982827 3.6405041489
Zn 6.0997967234 -1.3061506124 6.0845077311
Zn 6.0946478366 3.9199495744 6.0548235233
Zn 6.0914510000 3.9215400000 0.7547010000
Zn 6.0914510000 9.1502600000 0.7547010000
Zn 6.8026112546 2.6140955845 3.6388982567
Zn 6.8056747124 7.8426750384 3.6383130206
Zn 6.0932801414 1.3083334855 6.0575352949
Zn 6.0996584226 6.5339564197 6.0856110097
Zn 3.6548710000 -0.0000000000 1.5094010000
Zn 3.6548710000 5.2287200000 1.5094010000
Zn 4.4554213768 -1.3084710764 3.6919069099
Zn 4.4433221874 3.9172521067 3.6978395801
Zn 3.6627457043 -2.6150102953 6.0059784905
Zn 3.6182099205 2.6138032795 6.0660314409
Zn 3.6548710000 2.6143600000 1.5094010000
Zn 3.6548710000 7.8430800000 1.5094010000
Zn 4.4435851866 1.3106325955 3.6977628388
Zn 4.4555607864 6.5369687787 3.6915389118
Zn 3.6585363903 0.0017396396 5.9994573593
Zn 3.6581322769 5.2276826210 5.9987093197
Zn 8.5280310000 -0.0000000000 1.5094010000
Zn 8.5280310000 5.2287200000 1.5094010000
Zn 9.3312887089 -1.3070565229 3.6894135780
Zn 9.3347439164 3.9218010700 3.6839834942
Zn 8.5256003711 -2.6146696616 6.0099657841
Zn 8.5233335699 2.6141036873 5.9874126281
Zn 8.5280310000 2.6143600000 1.5094010000
Zn 8.5280310000 7.8430800000 1.5094010000
Zn 9.3348324820 1.3059369339 3.6839005052
Zn 9.3314776080 6.5355153651 3.6890083817
Zn 8.5287594749 0.0016232148 5.9937599331
Zn 8.5291330593 5.2261178368 5.9935476264
H 3.2192699769 4.8517699274 12.9294789945
H 3.8529664354 4.8159503381 10.5374262386
C 3.3403692335 3.8938138884 12.4212991036
C 3.7044080143 3.8776022072 11.0760237898
H 2.8785223277 2.7181528536 14.1802152758
C 3.1478631828 2.7012497437 13.1240444587
H 4.7216359417 3.4625415346 8.7038647528
C 3.8887324658 2.6568045233 10.4026717070
N 4.2406283144 2.6352044454 9.0488300605
C 3.3173781252 1.4860878960 12.4545585586
C 3.6781811658 1.4586561319 11.1083838458
H 3.1727163532 0.5447907688 12.9871284362
H 4.7040775682 1.7895161168 8.7255743446
H 3.8085390486 0.5032412562 10.5959060163
