63
Final Frame from Quantum Espresso Output
Zn 1.2182900000 1.3071800000 0.7547010000
Zn 1.2182900000 6.5359000004 0.7547010000
Zn 0.5237647642 0.0059832222 3.6327654400
Zn 0.5183559951 5.2521819036 3.6152379173
Zn 1.2388791448 -1.2917359127 6.0706038762
Zn 1.2063526970 3.9441356624 5.9577451362
Zn 1.2182900000 3.9215400000 0.7547010000
Zn 1.2182900000 9.1502600000 0.7547010000
Zn 0.5186153035 2.6183914227 3.5926856317
Zn 0.5259307599 7.8582813120 3.6263262370
Zn 1.2309609253 1.3281135382 6.0364170269
Zn 1.2361351139 6.5517059929 6.0666084614
Zn 6.0914510000 1.3071800000 0.7547010000
Zn 6.0914510000 6.5359000004 0.7547010000
Zn 5.3923310763 0.0146467742 3.6542814226
Zn 5.4128180094 5.2364589304 3.6252343440
Zn 6.1043064274 -1.2893136957 6.0714209195
Zn 6.1137414106 3.9341263544 6.0595795928
Zn 6.0914510000 3.9215400000 0.7547010000
Zn 6.0914510000 9.1502600000 0.7547010000
Zn 5.3910650293 2.6206775055 3.6318448355
Zn 5.4008153194 7.8506232896 3.6328045325
Zn 6.0987479982 1.3291186617 6.1056361910
Zn 6.1087335011 6.5515738559 6.0668185538
Zn 3.6548710000 0.0000000001 1.5094010000
Zn 3.6548710000 5.2287200000 1.5094010000
Zn 2.8844821259 -1.2902210499 3.6951802206
Zn 2.8864821265 3.9154353637 3.7114684034
Zn 3.6705166820 -2.5918207738 5.9995585408
Zn 3.6860952242 2.6317940138 6.1902069307
Zn 3.6548710000 2.6143600000 1.5094010000
Zn 3.6548710000 7.8430800001 1.5094010000
Zn 2.8875336019 1.3214618233 3.7005612187
Zn 2.8689173609 6.5514908619 3.6649130050
Zn 3.6766274801 0.0253870814 6.0049537774
Zn 3.6878454397 5.2663251756 5.8922694177
Zn 8.5280310000 0.0000000001 1.5094010000
Zn 8.5280310000 5.2287200000 1.5094010000
Zn 7.7459132375 -1.2949375483 3.6859174952
Zn 7.7548054343 3.9228865255 3.6968650125
Zn 8.5470173641 -2.6003174599 6.0014315580
Zn 8.5545763744 2.6231418710 5.9879329192
Zn 8.5280310000 2.6143600000 1.5094010000
Zn 8.5280310000 7.8430800001 1.5094010000
Zn 7.7397072505 1.3168827347 3.6894570835
Zn 7.7460643315 6.5434748078 3.6789431037
Zn 8.5551071147 0.0118366600 5.9985272492
Zn 8.5438833274 5.2463937269 5.9832848757
C 5.4393609034 -0.2645633109 12.5761513580
C 4.8931029641 0.6110909399 11.5890959772
C 5.6324548876 1.7229037176 11.1407429179
C 3.6165555649 0.3723010519 11.0436887019
C 5.1171940947 2.5648593864 10.1641741494
C 3.0982368062 1.2179084417 10.0713815791
C 3.8393443571 2.3274343938 9.6265871970
N 5.8934078509 -0.9914189330 13.3701363917
N 3.3388081594 3.1531089929 8.6118747565
H 2.3237654233 3.1768420298 8.5140839137
H 3.7226040952 4.0971659069 8.5869195135
H 3.0321962811 -0.4768638989 11.4000882214
H 6.6129222510 1.9240384163 11.5726009505
H 2.1070356953 1.0225379802 9.6554816629
H 5.6962000977 3.4283323326 9.8282096011
