65
Final Frame from Quantum Espresso Output
Zn -1.0735560000 1.0841420000 1.1977640000
Zn -2.3094850000 6.1646920000 1.1977640000
Zn -4.9032959966 0.1490514111 3.6226421347
Zn -6.1394325376 5.2287502957 3.6208828062
Zn -8.8771967068 -0.8179037995 5.7591355497
Zn -10.1099065631 4.2591952319 5.7744645793
Zn -1.6915200000 3.6244170000 1.1977640000
Zn -2.9274500000 8.7049670000 1.1977640000
Zn -5.5208123946 2.6883155249 3.6222737865
Zn -6.7565334839 7.7698939005 3.6235361012
Zn -9.4980618361 1.7215056564 5.7035191229
Zn -10.7258859474 6.8031073942 5.7664288845
Zn 4.4565960000 1.0841420000 1.1977640000
Zn 3.2206660000 6.1646920000 1.1977640000
Zn 0.6196338837 0.1436356368 3.5778546798
Zn -0.6102579024 5.2286941338 3.5893542471
Zn -3.3034280582 -0.8067808769 5.7584135646
Zn -4.5411109856 4.2733462812 5.7574146442
Zn 3.8386310000 3.6244170000 1.1977640000
Zn 2.6027020000 8.7049670000 1.1977640000
Zn -0.0019187260 2.6898439540 3.5770439555
Zn -1.2288831988 7.7676831873 3.5866001762
Zn -3.9224140172 1.7329487706 5.7587291620
Zn -5.1584114636 6.8140895909 5.7573301841
Zn 1.6915200000 0.4114910000 0.8555450000
Zn 0.4555910000 5.4920410000 0.8555450000
Zn -2.3452148668 -0.5697521940 2.9367685902
Zn -3.5832661927 4.5096595600 2.9352789292
Zn -6.3820496568 -1.5551719474 5.0613943772
Zn -7.6126752860 3.5282573902 5.0685928794
Zn 1.0735560000 2.9517660000 0.8555450000
Zn -0.1623740000 8.0323160000 0.8555450000
Zn -2.9638846944 1.9693858604 2.9363231283
Zn -4.2006537173 7.0507076422 2.9356610068
Zn -6.9954142397 0.9847247971 5.0705860596
Zn -8.2373294484 6.0647295689 5.0617918014
Zn 7.2216720000 0.4114910000 0.8555450000
Zn 5.9857420000 5.4920410000 0.8555450000
Zn 3.1853573375 -0.5700792209 2.9350793372
Zn 1.9487028332 4.5096825696 2.9365733907
Zn -0.8137118343 -1.5455457026 5.0710447079
Zn -2.0521707327 3.5344706047 5.0689297514
Zn 6.6037070000 2.9517660000 0.8555450000
Zn 5.3677780000 8.0323160000 0.8555450000
Zn 2.5690728703 1.9704653167 2.9318534555
Zn 1.3307484949 7.0501124595 2.9312619163
Zn -1.4311809118 0.9945618071 5.0749751103
Zn -2.6706547474 6.0747482087 5.0655235388
H -10.3107096827 1.7659637455 15.2673588661
C -9.3362065111 1.4763932100 14.8442663068
C -9.1231973902 0.2890848287 11.2082367980
C -9.6719491797 2.6244557303 12.6079964476
C -9.4294170845 1.4579058418 10.4862575067
C -9.3672600052 1.4646170188 13.3372679439
C -9.7049959109 2.6310544391 11.2178972950
C -9.0951632039 0.3039547361 12.6016089019
N -9.4597776310 1.4612196801 9.1095566164
H -8.9044821505 -0.6358263198 10.6698685627
H -9.8888255885 3.5512086376 13.1445018320
H -9.0813240071 0.4865794246 15.2458315496
H -9.6694891905 2.3033889583 8.5910671328
H -9.2534061161 0.6289673081 8.5740189566
H -9.9456249115 3.5527928602 10.6835784174
H -8.8526458286 -0.6184168673 13.1342521172
H -8.5935908655 2.1925848003 15.2292367000
